 xtb: 6.6.1 (8d0f1dd)
          08282510023D

 26 27  0     0  0            999 V2000
   -1.1622   -1.9090   -0.8934 C   0  0  0  0  0  0  0  0  0  0  0  0
   -1.6089   -0.6032   -0.3121 C   0  0  0  0  0  0  0  0  0  0  0  0
   -2.9607   -0.3387   -0.1323 C   0  0  0  0  0  0  0  0  0  0  0  0
   -3.3949    0.8584    0.4067 C   0  0  0  0  0  0  0  0  0  0  0  0
   -2.4781    1.8248    0.7804 C   0  0  0  0  0  0  0  0  0  0  0  0
   -1.1353    1.5606    0.6011 C   0  0  0  0  0  0  0  0  0  0  0  0
   -0.2378    2.5094    0.9496 F   0  0  0  0  0  0  0  0  0  0  0  0
   -0.6749    0.3664    0.0582 C   0  0  0  0  0  0  0  0  0  0  0  0
    0.7811    0.1552   -0.0899 C   0  0  0  0  0  0  0  0  0  0  0  0
    1.5980    0.0834    1.0457 C   0  0  0  0  0  0  0  0  0  0  0  0
    0.9982    0.1570    2.2587 O   0  0  0  0  0  0  0  0  0  0  0  0
    2.9705   -0.0856    0.9082 C   0  0  0  0  0  0  0  0  0  0  0  0
    3.5436   -0.1837   -0.3466 C   0  0  0  0  0  0  0  0  0  0  0  0
    2.7572   -0.1150   -1.4816 C   0  0  0  0  0  0  0  0  0  0  0  0
    1.3936    0.0561   -1.3307 C   0  0  0  0  0  0  0  0  0  0  0  0
    0.6295    0.1398   -2.4408 F   0  0  0  0  0  0  0  0  0  0  0  0
   -1.9403   -2.6611   -0.7886 H   0  0  0  0  0  0  0  0  0  0  0  0
   -0.9463   -1.7891   -1.9551 H   0  0  0  0  0  0  0  0  0  0  0  0
   -0.2564   -2.2629   -0.4044 H   0  0  0  0  0  0  0  0  0  0  0  0
   -3.6837   -1.0886   -0.4178 H   0  0  0  0  0  0  0  0  0  0  0  0
   -4.4504    1.0409    0.5395 H   0  0  0  0  0  0  0  0  0  0  0  0
   -2.7848    2.7680    1.2032 H   0  0  0  0  0  0  0  0  0  0  0  0
    1.6632    0.1536    2.9573 H   0  0  0  0  0  0  0  0  0  0  0  0
    3.5895   -0.1385    1.7935 H   0  0  0  0  0  0  0  0  0  0  0  0
    4.6105   -0.3140   -0.4386 H   0  0  0  0  0  0  0  0  0  0  0  0
    3.1798   -0.1841   -2.4704 H   0  0  0  0  0  0  0  0  0  0  0  0
  1  2  1  0  0  0  0
  2  3  4  0  0  0  0
  3  4  4  0  0  0  0
  4  5  4  0  0  0  0
  5  6  4  0  0  0  0
  6  7  1  0  0  0  0
  2  8  4  0  0  0  0
  6  8  4  0  0  0  0
  8  9  1  0  0  0  0
  9 10  4  0  0  0  0
 10 11  1  0  0  0  0
 10 12  4  0  0  0  0
 12 13  4  0  0  0  0
 13 14  4  0  0  0  0
  9 15  4  0  0  0  0
 14 15  4  0  0  0  0
 15 16  1  0  0  0  0
  1 17  1  0  0  0  0
  1 18  1  0  0  0  0
  1 19  1  0  0  0  0
  3 20  1  0  0  0  0
  4 21  1  0  0  0  0
  5 22  1  0  0  0  0
 11 23  1  0  0  0  0
 12 24  1  0  0  0  0
 13 25  1  0  0  0  0
 14 26  1  0  0  0  0
M  END
