energy: -46.466832575531 gnorm: 0.000734402280 xtb: 6.6.1 (8d0f1dd)
 OpenBabel12022516373D

 26 27  0  0  0  0  0  0  0  0999 V2000
   -1.1829    1.9518   -0.5062 C   0  0  0  0  0  0  0  0  0  0  0  0
   -1.5626    0.5540   -0.1223 C   0  0  0  0  0  0  0  0  0  0  0  0
   -2.9053    0.1972   -0.0561 C   0  0  0  0  0  0  0  0  0  0  0  0
   -3.2934   -1.0834    0.2895 C   0  0  0  0  0  0  0  0  0  0  0  0
   -2.3406   -2.0463    0.5747 C   0  0  0  0  0  0  0  0  0  0  0  0
   -1.0085   -1.6906    0.5088 C   0  0  0  0  0  0  0  0  0  0  0  0
   -0.0705   -2.6260    0.7742 F   0  0  0  0  0  0  0  0  0  0  0  0
   -0.5922   -0.4071    0.1664 C   0  0  0  0  0  0  0  0  0  0  0  0
    0.8601   -0.0944    0.1349 C   0  0  0  0  0  0  0  0  0  0  0  0
    1.6176   -0.2991   -1.0222 C   0  0  0  0  0  0  0  0  0  0  0  0
    1.0560   -0.7704   -2.1617 O   0  0  0  0  0  0  0  0  0  0  0  0
    2.9770   -0.0025   -1.0259 C   0  0  0  0  0  0  0  0  0  0  0  0
    3.5865    0.4873    0.1120 C   0  0  0  0  0  0  0  0  0  0  0  0
    2.8569    0.6918    1.2712 C   0  0  0  0  0  0  0  0  0  0  0  0
    1.5082    0.3957    1.2607 C   0  0  0  0  0  0  0  0  0  0  0  0
    0.7830    0.6016    2.3812 F   0  0  0  0  0  0  0  0  0  0  0  0
   -1.5275    2.1695   -1.5168 H   0  0  0  0  0  0  0  0  0  0  0  0
   -1.6561    2.6643    0.1673 H   0  0  0  0  0  0  0  0  0  0  0  0
   -0.1066    2.0976   -0.4665 H   0  0  0  0  0  0  0  0  0  0  0  0
   -3.6535    0.9440   -0.2764 H   0  0  0  0  0  0  0  0  0  0  0  0
   -4.3411   -1.3365    0.3394 H   0  0  0  0  0  0  0  0  0  0  0  0
   -2.6114   -3.0532    0.8486 H   0  0  0  0  0  0  0  0  0  0  0  0
    0.1197   -0.9613   -2.0101 H   0  0  0  0  0  0  0  0  0  0  0  0
    3.5332   -0.1677   -1.9341 H   0  0  0  0  0  0  0  0  0  0  0  0
    4.6413    0.7128    0.0984 H   0  0  0  0  0  0  0  0  0  0  0  0
    3.3127    1.0709    2.1711 H   0  0  0  0  0  0  0  0  0  0  0  0
  1 19  1  0  0  0  0
  1  2  1  0  0  0  0
  1 18  1  0  0  0  0
  2  3  2  0  0  0  0
  2  8  1  0  0  0  0
  3  4  1  0  0  0  0
  4 21  1  0  0  0  0
  4  5  2  0  0  0  0
  5 22  1  0  0  0  0
  6  5  1  0  0  0  0
  6  7  1  0  0  0  0
  8  6  2  0  0  0  0
  9  8  1  0  0  0  0
  9 15  1  0  0  0  0
 10  9  2  0  0  0  0
 11 23  1  0  0  0  0
 11 10  1  0  0  0  0
 12 10  1  0  0  0  0
 12 13  2  0  0  0  0
 13 14  1  0  0  0  0
 14 26  1  0  0  0  0
 15 14  2  0  0  0  0
 15 16  1  0  0  0  0
 17  1  1  0  0  0  0
 20  3  1  0  0  0  0
 24 12  1  0  0  0  0
 25 13  1  0  0  0  0
M  END
$$$$
