 xtb: 6.6.1 (8d0f1dd)
          08282510023D

 26 27  0     0  0            999 V2000
   -1.3784   -1.8396   -0.7094 C   0  0  0  0  0  0  0  0  0  0  0  0
   -1.6669   -0.5275   -0.0478 C   0  0  0  0  0  0  0  0  0  0  0  0
   -2.9572   -0.2039    0.3511 C   0  0  0  0  0  0  0  0  0  0  0  0
   -3.2392    1.0021    0.9668 C   0  0  0  0  0  0  0  0  0  0  0  0
   -2.2275    1.9161    1.2002 C   0  0  0  0  0  0  0  0  0  0  0  0
   -0.9454    1.5922    0.8040 C   0  0  0  0  0  0  0  0  0  0  0  0
    0.0438    2.4883    1.0180 F   0  0  0  0  0  0  0  0  0  0  0  0
   -0.6391    0.3898    0.1782 C   0  0  0  0  0  0  0  0  0  0  0  0
    0.7611    0.1188   -0.2134 C   0  0  0  0  0  0  0  0  0  0  0  0
    1.7438   -0.0558    0.7689 C   0  0  0  0  0  0  0  0  0  0  0  0
    1.3484   -0.0340    2.0653 O   0  0  0  0  0  0  0  0  0  0  0  0
    3.0672   -0.2673    0.4017 C   0  0  0  0  0  0  0  0  0  0  0  0
    3.4279   -0.3057   -0.9329 C   0  0  0  0  0  0  0  0  0  0  0  0
    2.4744   -0.1381   -1.9199 C   0  0  0  0  0  0  0  0  0  0  0  0
    1.1619    0.0726   -1.5403 C   0  0  0  0  0  0  0  0  0  0  0  0
    0.2332    0.2500   -2.5050 F   0  0  0  0  0  0  0  0  0  0  0  0
   -2.1918   -2.5410   -0.5414 H   0  0  0  0  0  0  0  0  0  0  0  0
   -0.4533   -2.2694   -0.3292 H   0  0  0  0  0  0  0  0  0  0  0  0
   -1.2665   -1.6989   -1.7840 H   0  0  0  0  0  0  0  0  0  0  0  0
   -3.7533   -0.9129    0.1773 H   0  0  0  0  0  0  0  0  0  0  0  0
   -4.2496    1.2324    1.2684 H   0  0  0  0  0  0  0  0  0  0  0  0
   -2.4148    2.8645    1.6779 H   0  0  0  0  0  0  0  0  0  0  0  0
    2.1153   -0.1084    2.6455 H   0  0  0  0  0  0  0  0  0  0  0  0
    3.8164   -0.3983    1.1706 H   0  0  0  0  0  0  0  0  0  0  0  0
    4.4596   -0.4668   -1.2040 H   0  0  0  0  0  0  0  0  0  0  0  0
    2.7299   -0.1595   -2.9666 H   0  0  0  0  0  0  0  0  0  0  0  0
  1  2  1  0  0  0  0
  2  3  4  0  0  0  0
  3  4  4  0  0  0  0
  4  5  4  0  0  0  0
  5  6  4  0  0  0  0
  6  7  1  0  0  0  0
  2  8  4  0  0  0  0
  6  8  4  0  0  0  0
  8  9  1  0  0  0  0
  9 10  4  0  0  0  0
 10 11  1  0  0  0  0
 10 12  4  0  0  0  0
 12 13  4  0  0  0  0
 13 14  4  0  0  0  0
  9 15  4  0  0  0  0
 14 15  4  0  0  0  0
 15 16  1  0  0  0  0
  1 17  1  0  0  0  0
  1 18  1  0  0  0  0
  1 19  1  0  0  0  0
  3 20  1  0  0  0  0
  4 21  1  0  0  0  0
  5 22  1  0  0  0  0
 11 23  1  0  0  0  0
 12 24  1  0  0  0  0
 13 25  1  0  0  0  0
 14 26  1  0  0  0  0
M  END
