/path/to/atropisomers_workflow/example/reactant_censo/confs/0.xyz
 OpenBabel07232612553D

 26 27  0  0  0  0  0  0  0  0999 V2000
   -0.9023   -1.4882    1.5236 C   0  0  0  0  0  0  0  0  0  0  0  0
   -1.4257   -0.3846    0.6995 C   0  0  0  0  0  0  0  0  0  0  0  0
   -2.7518   -0.0293    0.8490 C   0  0  0  0  0  0  0  0  0  0  0  0
   -3.3154    0.9963    0.1109 C   0  0  0  0  0  0  0  0  0  0  0  0
   -2.5199    1.6752   -0.7965 C   0  0  0  0  0  0  0  0  0  0  0  0
   -1.1918    1.3569   -0.9806 C   0  0  0  0  0  0  0  0  0  0  0  0
   -0.4110    2.0386   -1.8851 F   0  0  0  0  0  0  0  0  0  0  0  0
   -0.6810    0.3262   -0.2188 C   0  0  0  0  0  0  0  0  0  0  0  0
    0.7087   -0.0394   -0.3817 C   0  0  0  0  0  0  0  0  0  0  0  0
    1.6596    0.5679    0.3907 C   0  0  0  0  0  0  0  0  0  0  0  0
    1.3228    1.5511    1.3522 O   0  0  0  0  0  0  0  0  0  0  0  0
    2.9790    0.2042    0.2190 C   0  0  0  0  0  0  0  0  0  0  0  0
    3.3847   -0.7443   -0.6963 C   0  0  0  0  0  0  0  0  0  0  0  0
    2.3931   -1.3308   -1.4534 C   0  0  0  0  0  0  0  0  0  0  0  0
    1.0652   -0.9865   -1.3030 C   0  0  0  0  0  0  0  0  0  0  0  0
    0.1071   -1.6099   -2.0931 F   0  0  0  0  0  0  0  0  0  0  0  0
    0.1903   -1.4481    1.6771 H   0  0  0  0  0  0  0  0  0  0  0  0
   -1.3411   -1.3816    2.5410 H   0  0  0  0  0  0  0  0  0  0  0  0
   -1.2540   -2.4920    1.1733 H   0  0  0  0  0  0  0  0  0  0  0  0
   -3.3762   -0.5651    1.5638 H   0  0  0  0  0  0  0  0  0  0  0  0
   -4.3609    1.2776    0.2276 H   0  0  0  0  0  0  0  0  0  0  0  0
   -2.9194    2.4949   -1.4046 H   0  0  0  0  0  0  0  0  0  0  0  0
    1.8203    2.4048    1.4446 H   0  0  0  0  0  0  0  0  0  0  0  0
    3.7346    0.6823    0.8280 H   0  0  0  0  0  0  0  0  0  0  0  0
    4.4344   -0.9927   -0.7907 H   0  0  0  0  0  0  0  0  0  0  0  0
    2.6507   -2.0834   -2.1895 H   0  0  0  0  0  0  0  0  0  0  0  0
  1 17  1  0  0  0  0
  1 18  1  0  0  0  0
  2  3  1  0  0  0  0
  2  1  1  0  0  0  0
  3 20  1  0  0  0  0
  4 21  1  0  0  0  0
  4  3  2  0  0  0  0
  5  4  1  0  0  0  0
  6  5  2  0  0  0  0
  6  8  1  0  0  0  0
  7  6  1  0  0  0  0
  8  2  2  0  0  0  0
  9  8  1  0  0  0  0
  9 10  1  0  0  0  0
 10 11  1  0  0  0  0
 11 23  1  0  0  0  0
 12 10  2  0  0  0  0
 12 24  1  0  0  0  0
 13 12  1  0  0  0  0
 14 15  1  0  0  0  0
 14 13  2  0  0  0  0
 15  9  2  0  0  0  0
 16 15  1  0  0  0  0
 19  1  1  0  0  0  0
 22  5  1  0  0  0  0
 25 13  1  0  0  0  0
 26 14  1  0  0  0  0
M  END
$$$$
