/path/to/atropisomers_workflow/example/reactant_censo/confs/10.xyz
 OpenBabel07232612553D

 26 27  0  0  0  0  0  0  0  0999 V2000
    0.6024    1.8777   -1.0060 C   0  0  0  0  0  0  0  0  0  0  0  0
    1.3794    0.7552   -0.4182 C   0  0  0  0  0  0  0  0  0  0  0  0
    2.7585    0.7538   -0.3551 C   0  0  0  0  0  0  0  0  0  0  0  0
    3.4753   -0.2883    0.1904 C   0  0  0  0  0  0  0  0  0  0  0  0
    2.7982   -1.3819    0.6983 C   0  0  0  0  0  0  0  0  0  0  0  0
    1.4157   -1.3889    0.6392 C   0  0  0  0  0  0  0  0  0  0  0  0
    0.7875   -2.4753    1.1457 F   0  0  0  0  0  0  0  0  0  0  0  0
    0.6942   -0.3413    0.0907 C   0  0  0  0  0  0  0  0  0  0  0  0
   -0.7688   -0.3766    0.0419 C   0  0  0  0  0  0  0  0  0  0  0  0
   -1.5228    0.1296    1.0813 C   0  0  0  0  0  0  0  0  0  0  0  0
   -0.8444    0.6693    2.1662 O   0  0  0  0  0  0  0  0  0  0  0  0
   -2.9010    0.0872    1.0169 C   0  0  0  0  0  0  0  0  0  0  0  0
   -3.5860   -0.4460   -0.0546 C   0  0  0  0  0  0  0  0  0  0  0  0
   -2.8296   -0.9512   -1.0920 C   0  0  0  0  0  0  0  0  0  0  0  0
   -1.4569   -0.9117   -1.0334 C   0  0  0  0  0  0  0  0  0  0  0  0
   -0.7465   -1.4178   -2.0718 F   0  0  0  0  0  0  0  0  0  0  0  0
   -0.0838    1.5386   -1.8067 H   0  0  0  0  0  0  0  0  0  0  0  0
    1.2972    2.6017   -1.4829 H   0  0  0  0  0  0  0  0  0  0  0  0
    0.0060    2.3908   -0.2398 H   0  0  0  0  0  0  0  0  0  0  0  0
    3.2578    1.6328   -0.7653 H   0  0  0  0  0  0  0  0  0  0  0  0
    4.5747   -0.2312    0.2121 H   0  0  0  0  0  0  0  0  0  0  0  0
    3.3645   -2.2050    1.1292 H   0  0  0  0  0  0  0  0  0  0  0  0
   -0.1196    1.3428    2.1190 H   0  0  0  0  0  0  0  0  0  0  0  0
   -3.5045    0.4853    1.8343 H   0  0  0  0  0  0  0  0  0  0  0  0
   -4.6791   -0.4730   -0.0923 H   0  0  0  0  0  0  0  0  0  0  0  0
   -3.3683   -1.3766   -1.9471 H   0  0  0  0  0  0  0  0  0  0  0  0
  1  2  1  0  0  0  0
  1 19  1  0  0  0  0
  2  3  2  0  0  0  0
  2  8  1  0  0  0  0
  3  4  1  0  0  0  0
  4 21  1  0  0  0  0
  4  5  2  0  0  0  0
  5 22  1  0  0  0  0
  6  5  1  0  0  0  0
  6  7  1  0  0  0  0
  8  6  2  0  0  0  0
  9  8  1  0  0  0  0
  9 10  1  0  0  0  0
 10 11  1  0  0  0  0
 12 10  2  0  0  0  0
 12 24  1  0  0  0  0
 13 12  1  0  0  0  0
 14 15  1  0  0  0  0
 14 13  2  0  0  0  0
 15  9  2  0  0  0  0
 16 15  1  0  0  0  0
 17  1  1  0  0  0  0
 18  1  1  0  0  0  0
 20  3  1  0  0  0  0
 23 11  1  0  0  0  0
 25 13  1  0  0  0  0
 26 14  1  0  0  0  0
M  END
$$$$
