/path/to/atropisomers_workflow/example/reactant_censo/confs/12.xyz
 OpenBabel07232612553D

 26 27  0  0  0  0  0  0  0  0999 V2000
    1.0194    1.9542    0.3875 C   0  0  0  0  0  0  0  0  0  0  0  0
    1.5312    0.6225   -0.0391 C   0  0  0  0  0  0  0  0  0  0  0  0
    2.8598    0.4495   -0.3666 C   0  0  0  0  0  0  0  0  0  0  0  0
    3.3399   -0.7717   -0.7601 C   0  0  0  0  0  0  0  0  0  0  0  0
    2.4790   -1.8329   -0.8265 C   0  0  0  0  0  0  0  0  0  0  0  0
    1.1357   -1.6563   -0.4950 C   0  0  0  0  0  0  0  0  0  0  0  0
    0.2938   -2.7021   -0.5620 F   0  0  0  0  0  0  0  0  0  0  0  0
    0.6329   -0.4362   -0.0969 C   0  0  0  0  0  0  0  0  0  0  0  0
   -0.7505   -0.2238    0.2518 C   0  0  0  0  0  0  0  0  0  0  0  0
   -1.6445    0.1478   -0.7312 C   0  0  0  0  0  0  0  0  0  0  0  0
   -1.1881    0.3077   -2.0323 O   0  0  0  0  0  0  0  0  0  0  0  0
   -2.9653    0.3624   -0.4590 C   0  0  0  0  0  0  0  0  0  0  0  0
   -3.4556    0.2096    0.8406 C   0  0  0  0  0  0  0  0  0  0  0  0
   -2.5766   -0.1615    1.8370 C   0  0  0  0  0  0  0  0  0  0  0  0
   -1.2477   -0.3743    1.5471 C   0  0  0  0  0  0  0  0  0  0  0  0
   -0.3787   -0.7396    2.5240 F   0  0  0  0  0  0  0  0  0  0  0  0
    0.0750    2.2303   -0.0914 H   0  0  0  0  0  0  0  0  0  0  0  0
    0.8281    1.9116    1.4982 H   0  0  0  0  0  0  0  0  0  0  0  0
    1.7706    2.7343    0.1444 H   0  0  0  0  0  0  0  0  0  0  0  0
    3.5301    1.2794   -0.3139 H   0  0  0  0  0  0  0  0  0  0  0  0
    4.4016   -0.8908   -1.0172 H   0  0  0  0  0  0  0  0  0  0  0  0
    2.8764   -2.7914   -1.1399 H   0  0  0  0  0  0  0  0  0  0  0  0
   -1.5436   -0.3712   -2.7199 H   0  0  0  0  0  0  0  0  0  0  0  0
   -3.6247    0.6514   -1.2609 H   0  0  0  0  0  0  0  0  0  0  0  0
   -4.4930    0.3836    1.0265 H   0  0  0  0  0  0  0  0  0  0  0  0
   -2.9052   -0.2924    2.8549 H   0  0  0  0  0  0  0  0  0  0  0  0
  1 18  1  0  0  0  0
  2  1  1  0  0  0  0
  3 20  1  0  0  0  0
  3  2  2  0  0  0  0
  4  3  1  0  0  0  0
  5  4  2  0  0  0  0
  5  6  1  0  0  0  0
  6  8  2  0  0  0  0
  7  6  1  0  0  0  0
  8  2  1  0  0  0  0
  8  9  1  0  0  0  0
  9 15  1  0  0  0  0
 10 12  1  0  0  0  0
 10  9  2  0  0  0  0
 11 10  1  0  0  0  0
 12 13  2  0  0  0  0
 13 25  1  0  0  0  0
 13 14  1  0  0  0  0
 14 26  1  0  0  0  0
 15 14  2  0  0  0  0
 15 16  1  0  0  0  0
 17  1  1  0  0  0  0
 19  1  1  0  0  0  0
 21  4  1  0  0  0  0
 22  5  1  0  0  0  0
 23 11  1  0  0  0  0
 24 12  1  0  0  0  0
M  END
$$$$
