/path/to/atropisomers_workflow/example/reactant_censo/confs/13.xyz
 OpenBabel07232612553D

 26 27  0  0  0  0  0  0  0  0999 V2000
   -0.9418   -1.5005    1.2810 C   0  0  0  0  0  0  0  0  0  0  0  0
   -1.4756   -0.3841    0.4668 C   0  0  0  0  0  0  0  0  0  0  0  0
   -2.8279   -0.1186    0.5075 C   0  0  0  0  0  0  0  0  0  0  0  0
   -3.3347    0.9346   -0.2599 C   0  0  0  0  0  0  0  0  0  0  0  0
   -2.4587    1.6758   -1.0358 C   0  0  0  0  0  0  0  0  0  0  0  0
   -1.0964    1.3797   -1.0534 C   0  0  0  0  0  0  0  0  0  0  0  0
   -0.2236    2.0939   -1.8065 F   0  0  0  0  0  0  0  0  0  0  0  0
   -0.5939    0.3431   -0.2987 C   0  0  0  0  0  0  0  0  0  0  0  0
    0.8021   -0.0040   -0.2808 C   0  0  0  0  0  0  0  0  0  0  0  0
    1.6449    0.5706    0.6309 C   0  0  0  0  0  0  0  0  0  0  0  0
    1.1315    1.4836    1.5265 O   0  0  0  0  0  0  0  0  0  0  0  0
    2.9855    0.2474    0.6597 C   0  0  0  0  0  0  0  0  0  0  0  0
    3.5050   -0.6797   -0.2503 C   0  0  0  0  0  0  0  0  0  0  0  0
    2.6636   -1.2544   -1.1617 C   0  0  0  0  0  0  0  0  0  0  0  0
    1.3198   -0.9132   -1.1708 C   0  0  0  0  0  0  0  0  0  0  0  0
    0.5033   -1.4847   -2.0711 F   0  0  0  0  0  0  0  0  0  0  0  0
   -0.7509   -1.0815    2.3068 H   0  0  0  0  0  0  0  0  0  0  0  0
   -0.0515   -1.8950    0.7972 H   0  0  0  0  0  0  0  0  0  0  0  0
   -1.7269   -2.2867    1.4456 H   0  0  0  0  0  0  0  0  0  0  0  0
   -3.5014   -0.7038    1.1167 H   0  0  0  0  0  0  0  0  0  0  0  0
   -4.3890    1.1657   -0.2479 H   0  0  0  0  0  0  0  0  0  0  0  0
   -2.8054    2.4860   -1.6345 H   0  0  0  0  0  0  0  0  0  0  0  0
    0.4097    2.1478    1.2853 H   0  0  0  0  0  0  0  0  0  0  0  0
    3.6537    0.7004    1.3796 H   0  0  0  0  0  0  0  0  0  0  0  0
    4.5615   -0.9369   -0.2304 H   0  0  0  0  0  0  0  0  0  0  0  0
    2.9971   -1.9853   -1.9018 H   0  0  0  0  0  0  0  0  0  0  0  0
  1 19  1  0  0  0  0
  1 17  1  0  0  0  0
  2  3  1  0  0  0  0
  2  1  1  0  0  0  0
  3 20  1  0  0  0  0
  4 21  1  0  0  0  0
  4  3  2  0  0  0  0
  5  4  1  0  0  0  0
  6  5  2  0  0  0  0
  6  8  1  0  0  0  0
  7  6  1  0  0  0  0
  8  9  1  0  0  0  0
  8  2  2  0  0  0  0
  9 10  1  0  0  0  0
 10 12  2  0  0  0  0
 10 11  1  0  0  0  0
 12 24  1  0  0  0  0
 13 25  1  0  0  0  0
 13 12  1  0  0  0  0
 14 13  2  0  0  0  0
 15 14  1  0  0  0  0
 15  9  2  0  0  0  0
 16 15  1  0  0  0  0
 18  1  1  0  0  0  0
 22  5  1  0  0  0  0
 23 11  1  0  0  0  0
 26 14  1  0  0  0  0
M  END
$$$$
