/path/to/atropisomers_workflow/example/reactant_censo/confs/14.xyz
 OpenBabel07232612553D

 26 27  0  0  0  0  0  0  0  0999 V2000
   -1.2490    1.8910   -0.1383 C   0  0  0  0  0  0  0  0  0  0  0  0
   -1.5868    0.4387   -0.1726 C   0  0  0  0  0  0  0  0  0  0  0  0
   -2.9067    0.0958   -0.3779 C   0  0  0  0  0  0  0  0  0  0  0  0
   -3.2620   -1.2356   -0.4165 C   0  0  0  0  0  0  0  0  0  0  0  0
   -2.2640   -2.1727   -0.2452 C   0  0  0  0  0  0  0  0  0  0  0  0
   -0.9308   -1.8369   -0.0376 C   0  0  0  0  0  0  0  0  0  0  0  0
    0.0197   -2.8116    0.1266 F   0  0  0  0  0  0  0  0  0  0  0  0
   -0.5924   -0.5028   -0.0017 C   0  0  0  0  0  0  0  0  0  0  0  0
    0.7860   -0.0864    0.2119 C   0  0  0  0  0  0  0  0  0  0  0  0
    1.6593    0.1069   -0.8285 C   0  0  0  0  0  0  0  0  0  0  0  0
    1.2426   -0.0933   -2.1330 O   0  0  0  0  0  0  0  0  0  0  0  0
    2.9388    0.4988   -0.5415 C   0  0  0  0  0  0  0  0  0  0  0  0
    3.3818    0.7060    0.7493 C   0  0  0  0  0  0  0  0  0  0  0  0
    2.5203    0.5169    1.8025 C   0  0  0  0  0  0  0  0  0  0  0  0
    1.2345    0.1222    1.4990 C   0  0  0  0  0  0  0  0  0  0  0  0
    0.3704   -0.0677    2.5506 F   0  0  0  0  0  0  0  0  0  0  0  0
   -1.8922    2.3764   -0.9004 H   0  0  0  0  0  0  0  0  0  0  0  0
   -0.1642    2.0484   -0.3834 H   0  0  0  0  0  0  0  0  0  0  0  0
   -1.4862    2.2423    0.8928 H   0  0  0  0  0  0  0  0  0  0  0  0
   -3.6894    0.8269   -0.5122 H   0  0  0  0  0  0  0  0  0  0  0  0
   -4.3032   -1.5300   -0.5782 H   0  0  0  0  0  0  0  0  0  0  0  0
   -2.5628   -3.2169   -0.2786 H   0  0  0  0  0  0  0  0  0  0  0  0
    1.8504   -0.6624   -2.7223 H   0  0  0  0  0  0  0  0  0  0  0  0
    3.6431    0.6566   -1.3498 H   0  0  0  0  0  0  0  0  0  0  0  0
    4.4072    1.0176    0.9398 H   0  0  0  0  0  0  0  0  0  0  0  0
    2.8355    0.6718    2.8450 H   0  0  0  0  0  0  0  0  0  0  0  0
  1 19  1  0  0  0  0
  2  1  1  0  0  0  0
  2  8  1  0  0  0  0
  3  2  2  0  0  0  0
  4  3  1  0  0  0  0
  4  5  2  0  0  0  0
  5  6  1  0  0  0  0
  6  8  2  0  0  0  0
  6  7  1  0  0  0  0
  8  9  1  0  0  0  0
  9 15  1  0  0  0  0
 10 12  1  0  0  0  0
 10  9  2  0  0  0  0
 11 10  1  0  0  0  0
 12 13  2  0  0  0  0
 13 25  1  0  0  0  0
 13 14  1  0  0  0  0
 14 26  1  0  0  0  0
 15 14  2  0  0  0  0
 15 16  1  0  0  0  0
 17  1  1  0  0  0  0
 18  1  1  0  0  0  0
 20  3  1  0  0  0  0
 21  4  1  0  0  0  0
 22  5  1  0  0  0  0
 23 11  1  0  0  0  0
 24 12  1  0  0  0  0
M  END
$$$$
