/path/to/atropisomers_workflow/example/reactant_censo/confs/16.xyz
 OpenBabel07232612553D

 26 27  0  0  0  0  0  0  0  0999 V2000
    1.1614    1.1806   -1.5351 C   0  0  0  0  0  0  0  0  0  0  0  0
    1.6118    0.3037   -0.4142 C   0  0  0  0  0  0  0  0  0  0  0  0
    2.9187    0.1405   -0.0788 C   0  0  0  0  0  0  0  0  0  0  0  0
    3.3236   -0.6789    0.9670 C   0  0  0  0  0  0  0  0  0  0  0  0
    2.3171   -1.3227    1.6513 C   0  0  0  0  0  0  0  0  0  0  0  0
    0.9877   -1.1917    1.3531 C   0  0  0  0  0  0  0  0  0  0  0  0
    0.0274   -1.8601    2.0724 F   0  0  0  0  0  0  0  0  0  0  0  0
    0.6428   -0.3628    0.3018 C   0  0  0  0  0  0  0  0  0  0  0  0
   -0.7726   -0.2009   -0.0433 C   0  0  0  0  0  0  0  0  0  0  0  0
   -1.5163    0.7979    0.5475 C   0  0  0  0  0  0  0  0  0  0  0  0
   -0.9178    1.6435    1.4659 O   0  0  0  0  0  0  0  0  0  0  0  0
   -2.8643    0.9766    0.2396 C   0  0  0  0  0  0  0  0  0  0  0  0
   -3.4910    0.1380   -0.6826 C   0  0  0  0  0  0  0  0  0  0  0  0
   -2.7508   -0.8628   -1.2763 C   0  0  0  0  0  0  0  0  0  0  0  0
   -1.4136   -1.0160   -0.9504 C   0  0  0  0  0  0  0  0  0  0  0  0
   -0.7060   -1.9935   -1.5356 F   0  0  0  0  0  0  0  0  0  0  0  0
    0.9764    2.1944   -1.0727 H   0  0  0  0  0  0  0  0  0  0  0  0
    1.9864    1.3412   -2.2599 H   0  0  0  0  0  0  0  0  0  0  0  0
    0.2343    0.8360   -1.9993 H   0  0  0  0  0  0  0  0  0  0  0  0
    3.6838    0.6643   -0.6412 H   0  0  0  0  0  0  0  0  0  0  0  0
    4.3739   -0.7890    1.2107 H   0  0  0  0  0  0  0  0  0  0  0  0
    2.6000   -1.9709    2.4747 H   0  0  0  0  0  0  0  0  0  0  0  0
   -1.1282    1.5189    2.4452 H   0  0  0  0  0  0  0  0  0  0  0  0
   -3.4708    1.7397    0.6779 H   0  0  0  0  0  0  0  0  0  0  0  0
   -4.5480    0.2699   -0.9310 H   0  0  0  0  0  0  0  0  0  0  0  0
   -3.2658   -1.4959   -1.9867 H   0  0  0  0  0  0  0  0  0  0  0  0
  1 17  1  0  0  0  0
  1  2  1  0  0  0  0
  2  3  2  0  0  0  0
  2  8  1  0  0  0  0
  3  4  1  0  0  0  0
  4 21  1  0  0  0  0
  4  5  2  0  0  0  0
  5 22  1  0  0  0  0
  6  5  1  0  0  0  0
  6  7  1  0  0  0  0
  8  6  2  0  0  0  0
  9  8  1  0  0  0  0
  9 10  1  0  0  0  0
 10 11  1  0  0  0  0
 11 23  1  0  0  0  0
 12 10  2  0  0  0  0
 12 24  1  0  0  0  0
 13 12  1  0  0  0  0
 14 15  1  0  0  0  0
 14 13  2  0  0  0  0
 15  9  2  0  0  0  0
 16 15  1  0  0  0  0
 18  1  1  0  0  0  0
 19  1  1  0  0  0  0
 20  3  1  0  0  0  0
 25 13  1  0  0  0  0
 26 14  1  0  0  0  0
M  END
$$$$
