/path/to/atropisomers_workflow/example/reactant_censo/confs/17.xyz
 OpenBabel07232612553D

 26 27  0  0  0  0  0  0  0  0999 V2000
   -1.1146   -0.6971    1.8905 C   0  0  0  0  0  0  0  0  0  0  0  0
   -1.5912   -0.2463    0.5440 C   0  0  0  0  0  0  0  0  0  0  0  0
   -2.9311   -0.0965    0.2473 C   0  0  0  0  0  0  0  0  0  0  0  0
   -3.3365    0.3194   -0.9991 C   0  0  0  0  0  0  0  0  0  0  0  0
   -2.4156    0.5903   -1.9621 C   0  0  0  0  0  0  0  0  0  0  0  0
   -1.0917    0.4458   -1.6800 C   0  0  0  0  0  0  0  0  0  0  0  0
   -0.1570    0.7131   -2.6336 F   0  0  0  0  0  0  0  0  0  0  0  0
   -0.6548    0.0283   -0.4326 C   0  0  0  0  0  0  0  0  0  0  0  0
    0.7739   -0.1073   -0.1914 C   0  0  0  0  0  0  0  0  0  0  0  0
    1.5040    0.9620    0.2876 C   0  0  0  0  0  0  0  0  0  0  0  0
    0.8253    2.1504    0.5241 O   0  0  0  0  0  0  0  0  0  0  0  0
    2.8797    0.8403    0.5226 C   0  0  0  0  0  0  0  0  0  0  0  0
    3.5096   -0.3588    0.2731 C   0  0  0  0  0  0  0  0  0  0  0  0
    2.8041   -1.4296   -0.2014 C   0  0  0  0  0  0  0  0  0  0  0  0
    1.4532   -1.2808   -0.4231 C   0  0  0  0  0  0  0  0  0  0  0  0
    0.7752   -2.3498   -0.8916 F   0  0  0  0  0  0  0  0  0  0  0  0
   -1.8997   -0.4382    2.6316 H   0  0  0  0  0  0  0  0  0  0  0  0
   -0.9235   -1.8049    1.8598 H   0  0  0  0  0  0  0  0  0  0  0  0
   -0.1588   -0.1976    2.1476 H   0  0  0  0  0  0  0  0  0  0  0  0
   -3.6629   -0.3146    1.0215 H   0  0  0  0  0  0  0  0  0  0  0  0
   -4.3956    0.4318   -1.2150 H   0  0  0  0  0  0  0  0  0  0  0  0
   -2.7016    0.9187   -2.9508 H   0  0  0  0  0  0  0  0  0  0  0  0
    1.2427    3.0366    0.6772 H   0  0  0  0  0  0  0  0  0  0  0  0
    3.4077    1.6969    0.8951 H   0  0  0  0  0  0  0  0  0  0  0  0
    4.5795   -0.4475    0.4578 H   0  0  0  0  0  0  0  0  0  0  0  0
    3.2797   -2.3644   -0.3991 H   0  0  0  0  0  0  0  0  0  0  0  0
  1 19  1  0  0  0  0
  1 17  1  0  0  0  0
  2  1  1  0  0  0  0
  3  2  1  0  0  0  0
  3 20  1  0  0  0  0
  4  3  2  0  0  0  0
  5  6  2  0  0  0  0
  5  4  1  0  0  0  0
  6  8  1  0  0  0  0
  7  6  1  0  0  0  0
  8  9  1  0  0  0  0
  8  2  2  0  0  0  0
  9 10  1  0  0  0  0
 10 12  2  0  0  0  0
 10 11  1  0  0  0  0
 11 23  1  0  0  0  0
 12 24  1  0  0  0  0
 13 25  1  0  0  0  0
 13 12  1  0  0  0  0
 14 13  2  0  0  0  0
 15 14  1  0  0  0  0
 15  9  2  0  0  0  0
 16 15  1  0  0  0  0
 18  1  1  0  0  0  0
 21  4  1  0  0  0  0
 22  5  1  0  0  0  0
 26 14  1  0  0  0  0
M  END
$$$$
