/path/to/atropisomers_workflow/example/reactant_censo/confs/2.xyz
 OpenBabel07232612553D

 26 27  0  0  0  0  0  0  0  0999 V2000
   -1.2909    1.9264   -0.1811 C   0  0  0  0  0  0  0  0  0  0  0  0
   -1.5841    0.4586   -0.0974 C   0  0  0  0  0  0  0  0  0  0  0  0
   -2.8847    0.0024   -0.2124 C   0  0  0  0  0  0  0  0  0  0  0  0
   -3.1897   -1.3438   -0.1398 C   0  0  0  0  0  0  0  0  0  0  0  0
   -2.1795   -2.2645    0.0521 C   0  0  0  0  0  0  0  0  0  0  0  0
   -0.8741   -1.8042    0.1673 C   0  0  0  0  0  0  0  0  0  0  0  0
    0.1307   -2.6902    0.3558 F   0  0  0  0  0  0  0  0  0  0  0  0
   -0.5609   -0.4548    0.0954 C   0  0  0  0  0  0  0  0  0  0  0  0
    0.8170   -0.0316    0.2222 C   0  0  0  0  0  0  0  0  0  0  0  0
    1.5997    0.0710   -0.9051 C   0  0  0  0  0  0  0  0  0  0  0  0
    1.0832   -0.2264   -2.1601 O   0  0  0  0  0  0  0  0  0  0  0  0
    2.9235    0.4700   -0.8495 C   0  0  0  0  0  0  0  0  0  0  0  0
    3.4838    0.7763    0.3696 C   0  0  0  0  0  0  0  0  0  0  0  0
    2.7176    0.6816    1.5236 C   0  0  0  0  0  0  0  0  0  0  0  0
    1.3805    0.2752    1.4380 C   0  0  0  0  0  0  0  0  0  0  0  0
    0.6691    0.1960    2.5851 F   0  0  0  0  0  0  0  0  0  0  0  0
   -0.3007    2.1221   -0.6005 H   0  0  0  0  0  0  0  0  0  0  0  0
   -2.1212    2.3700   -0.7945 H   0  0  0  0  0  0  0  0  0  0  0  0
   -1.4332    2.3354    0.8384 H   0  0  0  0  0  0  0  0  0  0  0  0
   -3.6861    0.7295   -0.3643 H   0  0  0  0  0  0  0  0  0  0  0  0
   -4.2128   -1.7102   -0.2297 H   0  0  0  0  0  0  0  0  0  0  0  0
   -2.4221   -3.3303    0.1094 H   0  0  0  0  0  0  0  0  0  0  0  0
    0.6956   -1.1270   -2.3822 H   0  0  0  0  0  0  0  0  0  0  0  0
    3.5236    0.5458   -1.7385 H   0  0  0  0  0  0  0  0  0  0  0  0
    4.5132    1.0902    0.4450 H   0  0  0  0  0  0  0  0  0  0  0  0
    3.2026    0.9323    2.4534 H   0  0  0  0  0  0  0  0  0  0  0  0
  1  2  1  0  0  0  0
  1 19  1  0  0  0  0
  2  8  1  0  0  0  0
  3  4  1  0  0  0  0
  3  2  2  0  0  0  0
  4  5  2  0  0  0  0
  5 22  1  0  0  0  0
  5  6  1  0  0  0  0
  6  7  1  0  0  0  0
  8  6  2  0  0  0  0
  8  9  1  0  0  0  0
  9 15  1  0  0  0  0
 10 12  1  0  0  0  0
 10  9  2  0  0  0  0
 11 10  1  0  0  0  0
 12 13  2  0  0  0  0
 13 25  1  0  0  0  0
 13 14  1  0  0  0  0
 14 26  1  0  0  0  0
 15 14  2  0  0  0  0
 15 16  1  0  0  0  0
 17  1  1  0  0  0  0
 18  1  1  0  0  0  0
 20  3  1  0  0  0  0
 21  4  1  0  0  0  0
 23 11  1  0  0  0  0
 24 12  1  0  0  0  0
M  END
$$$$
