/path/to/atropisomers_workflow/example/reactant_censo/confs/3.xyz
 OpenBabel07232612553D

 26 27  0  0  0  0  0  0  0  0999 V2000
   -1.0257   -1.9132   -0.6027 C   0  0  0  0  0  0  0  0  0  0  0  0
   -1.5368   -0.5784   -0.1952 C   0  0  0  0  0  0  0  0  0  0  0  0
   -2.8812   -0.3681   -0.0318 C   0  0  0  0  0  0  0  0  0  0  0  0
   -3.4019    0.8556    0.3458 C   0  0  0  0  0  0  0  0  0  0  0  0
   -2.5078    1.8750    0.5561 C   0  0  0  0  0  0  0  0  0  0  0  0
   -1.1477    1.6773    0.3949 C   0  0  0  0  0  0  0  0  0  0  0  0
   -0.2869    2.6940    0.6072 F   0  0  0  0  0  0  0  0  0  0  0  0
   -0.6427    0.4404    0.0149 C   0  0  0  0  0  0  0  0  0  0  0  0
    0.7835    0.2129   -0.1596 C   0  0  0  0  0  0  0  0  0  0  0  0
    1.5119   -0.2098    0.9291 C   0  0  0  0  0  0  0  0  0  0  0  0
    0.8595   -0.3988    2.1357 O   0  0  0  0  0  0  0  0  0  0  0  0
    2.8746   -0.4417    0.8182 C   0  0  0  0  0  0  0  0  0  0  0  0
    3.5448   -0.2604   -0.3719 C   0  0  0  0  0  0  0  0  0  0  0  0
    2.8155    0.1631   -1.4631 C   0  0  0  0  0  0  0  0  0  0  0  0
    1.4396    0.3991   -1.3581 C   0  0  0  0  0  0  0  0  0  0  0  0
    0.7212    0.8152   -2.4290 F   0  0  0  0  0  0  0  0  0  0  0  0
   -1.3941   -2.6424    0.1526 H   0  0  0  0  0  0  0  0  0  0  0  0
   -1.5487   -2.1862   -1.5557 H   0  0  0  0  0  0  0  0  0  0  0  0
    0.0602   -1.9073   -0.7243 H   0  0  0  0  0  0  0  0  0  0  0  0
   -3.5470   -1.2040   -0.2096 H   0  0  0  0  0  0  0  0  0  0  0  0
   -4.4571    1.0431    0.4802 H   0  0  0  0  0  0  0  0  0  0  0  0
   -2.8814    2.8603    0.8566 H   0  0  0  0  0  0  0  0  0  0  0  0
    1.2268   -0.0182    3.0199 H   0  0  0  0  0  0  0  0  0  0  0  0
    3.4742   -0.7754    1.6593 H   0  0  0  0  0  0  0  0  0  0  0  0
    4.6239   -0.4445   -0.4583 H   0  0  0  0  0  0  0  0  0  0  0  0
    3.3232    0.3125   -2.4110 H   0  0  0  0  0  0  0  0  0  0  0  0
  1  2  1  0  0  0  0
  1 17  1  0  0  0  0
  2  3  2  0  0  0  0
  2  8  1  0  0  0  0
  3  4  1  0  0  0  0
  4 21  1  0  0  0  0
  4  5  2  0  0  0  0
  5 22  1  0  0  0  0
  6  5  1  0  0  0  0
  6  7  1  0  0  0  0
  8  6  2  0  0  0  0
  9  8  1  0  0  0  0
  9 10  1  0  0  0  0
 10 11  1  0  0  0  0
 11 23  1  0  0  0  0
 12 10  2  0  0  0  0
 12 24  1  0  0  0  0
 13 12  1  0  0  0  0
 14 15  1  0  0  0  0
 14 13  2  0  0  0  0
 15  9  2  0  0  0  0
 16 15  1  0  0  0  0
 18  1  1  0  0  0  0
 19  1  1  0  0  0  0
 20  3  1  0  0  0  0
 25 13  1  0  0  0  0
 26 14  1  0  0  0  0
M  END
$$$$
