/path/to/atropisomers_workflow/example/reactant_censo/confs/8.xyz
 OpenBabel07232612553D

 26 27  0  0  0  0  0  0  0  0999 V2000
   -1.1362    1.9052   -0.4900 C   0  0  0  0  0  0  0  0  0  0  0  0
   -1.5464    0.5299   -0.1217 C   0  0  0  0  0  0  0  0  0  0  0  0
   -2.8867    0.2021   -0.0939 C   0  0  0  0  0  0  0  0  0  0  0  0
   -3.3089   -1.0666    0.2437 C   0  0  0  0  0  0  0  0  0  0  0  0
   -2.3404   -1.9983    0.5533 C   0  0  0  0  0  0  0  0  0  0  0  0
   -1.0063   -1.6711    0.5254 C   0  0  0  0  0  0  0  0  0  0  0  0
   -0.1181   -2.6370    0.8408 F   0  0  0  0  0  0  0  0  0  0  0  0
   -0.5834   -0.4070    0.1891 C   0  0  0  0  0  0  0  0  0  0  0  0
    0.8468   -0.0824    0.1666 C   0  0  0  0  0  0  0  0  0  0  0  0
    1.5814   -0.2509   -0.9877 C   0  0  0  0  0  0  0  0  0  0  0  0
    0.9606   -0.7260   -2.1166 O   0  0  0  0  0  0  0  0  0  0  0  0
    2.9421    0.0462   -1.0496 C   0  0  0  0  0  0  0  0  0  0  0  0
    3.5843    0.5250    0.0754 C   0  0  0  0  0  0  0  0  0  0  0  0
    2.8741    0.7039    1.2460 C   0  0  0  0  0  0  0  0  0  0  0  0
    1.5170    0.3976    1.2735 C   0  0  0  0  0  0  0  0  0  0  0  0
    0.8110    0.5707    2.4205 F   0  0  0  0  0  0  0  0  0  0  0  0
   -1.4942    2.1901   -1.5037 H   0  0  0  0  0  0  0  0  0  0  0  0
   -1.6604    2.6186    0.2111 H   0  0  0  0  0  0  0  0  0  0  0  0
   -0.0657    2.0656   -0.3365 H   0  0  0  0  0  0  0  0  0  0  0  0
   -3.6336    0.9617   -0.3443 H   0  0  0  0  0  0  0  0  0  0  0  0
   -4.3538   -1.3450    0.2718 H   0  0  0  0  0  0  0  0  0  0  0  0
   -2.6692   -3.0100    0.8229 H   0  0  0  0  0  0  0  0  0  0  0  0
    0.1397   -1.2838   -2.0318 H   0  0  0  0  0  0  0  0  0  0  0  0
    3.5229   -0.0852   -1.9558 H   0  0  0  0  0  0  0  0  0  0  0  0
    4.6539    0.7707    0.0683 H   0  0  0  0  0  0  0  0  0  0  0  0
    3.3696    1.0761    2.1231 H   0  0  0  0  0  0  0  0  0  0  0  0
  1 19  1  0  0  0  0
  1  2  1  0  0  0  0
  1 18  1  0  0  0  0
  2  3  2  0  0  0  0
  2  8  1  0  0  0  0
  3  4  1  0  0  0  0
  4 21  1  0  0  0  0
  4  5  2  0  0  0  0
  5 22  1  0  0  0  0
  6  5  1  0  0  0  0
  6  7  1  0  0  0  0
  8  6  2  0  0  0  0
  9  8  1  0  0  0  0
  9 15  1  0  0  0  0
 10  9  2  0  0  0  0
 11 23  1  0  0  0  0
 11 10  1  0  0  0  0
 12 10  1  0  0  0  0
 12 13  2  0  0  0  0
 13 14  1  0  0  0  0
 14 15  2  0  0  0  0
 14 26  1  0  0  0  0
 15 16  1  0  0  0  0
 17  1  1  0  0  0  0
 20  3  1  0  0  0  0
 24 12  1  0  0  0  0
 25 13  1  0  0  0  0
M  END
$$$$
