/path/to/atropisomers_workflow/example/reactant_censo/confs/9.xyz
 OpenBabel07232612553D

 26 27  0  0  0  0  0  0  0  0999 V2000
    0.9469    2.0092    0.4085 C   0  0  0  0  0  0  0  0  0  0  0  0
    1.4499    0.6398    0.1956 C   0  0  0  0  0  0  0  0  0  0  0  0
    2.8342    0.4745    0.1310 C   0  0  0  0  0  0  0  0  0  0  0  0
    3.4068   -0.7459   -0.0624 C   0  0  0  0  0  0  0  0  0  0  0  0
    2.6176   -1.8748   -0.2025 C   0  0  0  0  0  0  0  0  0  0  0  0
    1.2529   -1.7010   -0.1373 C   0  0  0  0  0  0  0  0  0  0  0  0
    0.4632   -2.7934   -0.2720 F   0  0  0  0  0  0  0  0  0  0  0  0
    0.6584   -0.4726    0.0580 C   0  0  0  0  0  0  0  0  0  0  0  0
   -0.7861   -0.2966    0.1260 C   0  0  0  0  0  0  0  0  0  0  0  0
   -1.5010   -0.0425   -1.0239 C   0  0  0  0  0  0  0  0  0  0  0  0
   -0.7800    0.0345   -2.2257 O   0  0  0  0  0  0  0  0  0  0  0  0
   -2.8697    0.1336   -1.0261 C   0  0  0  0  0  0  0  0  0  0  0  0
   -3.5854    0.0594    0.1506 C   0  0  0  0  0  0  0  0  0  0  0  0
   -2.8828   -0.1944    1.3099 C   0  0  0  0  0  0  0  0  0  0  0  0
   -1.4963   -0.3719    1.3060 C   0  0  0  0  0  0  0  0  0  0  0  0
   -0.8252   -0.6179    2.4385 F   0  0  0  0  0  0  0  0  0  0  0  0
   -0.1076    2.1514    0.1635 H   0  0  0  0  0  0  0  0  0  0  0  0
    1.1652    2.2602    1.4873 H   0  0  0  0  0  0  0  0  0  0  0  0
    1.5929    2.7246   -0.1686 H   0  0  0  0  0  0  0  0  0  0  0  0
    3.5010    1.3393    0.2365 H   0  0  0  0  0  0  0  0  0  0  0  0
    4.4914   -0.8695   -0.1122 H   0  0  0  0  0  0  0  0  0  0  0  0
    3.1007   -2.8118   -0.3523 H   0  0  0  0  0  0  0  0  0  0  0  0
   -1.0989    0.6905   -2.9120 H   0  0  0  0  0  0  0  0  0  0  0  0
   -3.4306    0.3331   -1.9299 H   0  0  0  0  0  0  0  0  0  0  0  0
   -4.6693    0.1960    0.1691 H   0  0  0  0  0  0  0  0  0  0  0  0
   -3.4481   -0.2537    2.2448 H   0  0  0  0  0  0  0  0  0  0  0  0
  1 18  1  0  0  0  0
  2  1  1  0  0  0  0
  3  2  1  0  0  0  0
  3 20  1  0  0  0  0
  4  3  2  0  0  0  0
  5  6  2  0  0  0  0
  5  4  1  0  0  0  0
  6  8  1  0  0  0  0
  7  6  1  0  0  0  0
  8  9  1  0  0  0  0
  8  2  2  0  0  0  0
  9 15  1  0  0  0  0
 10  9  2  0  0  0  0
 11 10  1  0  0  0  0
 12 10  1  0  0  0  0
 12 13  2  0  0  0  0
 13 25  1  0  0  0  0
 13 14  1  0  0  0  0
 14 26  1  0  0  0  0
 15 14  2  0  0  0  0
 15 16  1  0  0  0  0
 17  1  1  0  0  0  0
 19  1  1  0  0  0  0
 21  4  1  0  0  0  0
 22  5  1  0  0  0  0
 23 11  1  0  0  0  0
 24 12  1  0  0  0  0
M  END
$$$$
