 xtb: 6.6.1 (8d0f1dd)
          07232612553D

 26 27  0     0  0            999 V2000
   -1.4009    1.9561    0.1187 C   0  0  0  0  0  0  0  0  0  0  0  0
   -1.6770    0.4981   -0.0829 C   0  0  0  0  0  0  0  0  0  0  0  0
   -2.9678    0.0478   -0.3276 C   0  0  0  0  0  0  0  0  0  0  0  0
   -3.2371   -1.2949   -0.5222 C   0  0  0  0  0  0  0  0  0  0  0  0
   -2.2120   -2.2226   -0.4783 C   0  0  0  0  0  0  0  0  0  0  0  0
   -0.9295   -1.7731   -0.2356 C   0  0  0  0  0  0  0  0  0  0  0  0
    0.0735   -2.6775   -0.1778 F   0  0  0  0  0  0  0  0  0  0  0  0
   -0.6358   -0.4303   -0.0306 C   0  0  0  0  0  0  0  0  0  0  0  0
    0.7664   -0.0329    0.2223 C   0  0  0  0  0  0  0  0  0  0  0  0
    1.7265   -0.1655   -0.7884 C   0  0  0  0  0  0  0  0  0  0  0  0
    1.3060   -0.5950   -2.0034 O   0  0  0  0  0  0  0  0  0  0  0  0
    3.0536    0.1609   -0.5369 C   0  0  0  0  0  0  0  0  0  0  0  0
    3.4400    0.6173    0.7101 C   0  0  0  0  0  0  0  0  0  0  0  0
    2.5087    0.7595    1.7221 C   0  0  0  0  0  0  0  0  0  0  0  0
    1.1923    0.4297    1.4584 C   0  0  0  0  0  0  0  0  0  0  0  0
    0.2856    0.5545    2.4519 F   0  0  0  0  0  0  0  0  0  0  0  0
   -2.2448    2.5556   -0.2126 H   0  0  0  0  0  0  0  0  0  0  0  0
   -0.5113    2.2597   -0.4307 H   0  0  0  0  0  0  0  0  0  0  0  0
   -1.2296    2.1623    1.1748 H   0  0  0  0  0  0  0  0  0  0  0  0
   -3.7746    0.7647   -0.3687 H   0  0  0  0  0  0  0  0  0  0  0  0
   -4.2481   -1.6220   -0.7114 H   0  0  0  0  0  0  0  0  0  0  0  0
   -2.3896   -3.2757   -0.6266 H   0  0  0  0  0  0  0  0  0  0  0  0
    2.0601   -0.6991   -2.5958 H   0  0  0  0  0  0  0  0  0  0  0  0
    3.7856    0.0506   -1.3254 H   0  0  0  0  0  0  0  0  0  0  0  0
    4.4745    0.8624    0.8933 H   0  0  0  0  0  0  0  0  0  0  0  0
    2.7850    1.1092    2.7033 H   0  0  0  0  0  0  0  0  0  0  0  0
  1  2  1  0  0  0  0
  2  3  4  0  0  0  0
  3  4  4  0  0  0  0
  4  5  4  0  0  0  0
  5  6  4  0  0  0  0
  6  7  1  0  0  0  0
  2  8  4  0  0  0  0
  6  8  4  0  0  0  0
  8  9  1  0  0  0  0
  9 10  4  0  0  0  0
 10 11  1  0  0  0  0
 10 12  4  0  0  0  0
 12 13  4  0  0  0  0
 13 14  4  0  0  0  0
  9 15  4  0  0  0  0
 14 15  4  0  0  0  0
 15 16  1  0  0  0  0
  1 17  1  0  0  0  0
  1 18  1  0  0  0  0
  1 19  1  0  0  0  0
  3 20  1  0  0  0  0
  4 21  1  0  0  0  0
  5 22  1  0  0  0  0
 11 23  1  0  0  0  0
 12 24  1  0  0  0  0
 13 25  1  0  0  0  0
 14 26  1  0  0  0  0
M  END
