G(CENSO)=        -776.05323643  G(xTB)=         -46.31737952        !CONF5
 OpenBabel12022516373D

 26 27  0  0  0  0  0  0  0  0999 V2000
   -0.7320    1.5670   -2.0545 C   0  0  0  0  0  0  0  0  0  0  0  0
   -1.4707    0.7583   -1.0231 C   0  0  0  0  0  0  0  0  0  0  0  0
   -2.8666    0.7407   -0.9965 C   0  0  0  0  0  0  0  0  0  0  0  0
   -3.5597    0.0280   -0.0238 C   0  0  0  0  0  0  0  0  0  0  0  0
   -2.8726   -0.6850    0.9506 C   0  0  0  0  0  0  0  0  0  0  0  0
   -1.4899   -0.6651    0.9135 C   0  0  0  0  0  0  0  0  0  0  0  0
   -0.8138   -1.3574    1.8522 F   0  0  0  0  0  0  0  0  0  0  0  0
   -0.7591    0.0281   -0.0492 C   0  0  0  0  0  0  0  0  0  0  0  0
    0.7219   -0.0115   -0.0343 C   0  0  0  0  0  0  0  0  0  0  0  0
    1.4360   -0.7257   -1.0087 C   0  0  0  0  0  0  0  0  0  0  0  0
    0.7902   -1.4316   -1.9778 O   0  0  0  0  0  0  0  0  0  0  0  0
    2.8296   -0.7400   -1.0146 C   0  0  0  0  0  0  0  0  0  0  0  0
    3.5227   -0.0484   -0.0314 C   0  0  0  0  0  0  0  0  0  0  0  0
    2.8504    0.6562    0.9640 C   0  0  0  0  0  0  0  0  0  0  0  0
    1.4681    0.6499    0.9354 C   0  0  0  0  0  0  0  0  0  0  0  0
    0.7960    1.3346    1.8858 F   0  0  0  0  0  0  0  0  0  0  0  0
    0.0223    2.2036   -1.5814 H   0  0  0  0  0  0  0  0  0  0  0  0
   -0.2012    0.9268   -2.7686 H   0  0  0  0  0  0  0  0  0  0  0  0
   -1.4225    2.2004   -2.6156 H   0  0  0  0  0  0  0  0  0  0  0  0
   -3.4166    1.3071   -1.7425 H   0  0  0  0  0  0  0  0  0  0  0  0
   -4.6456    0.0319   -0.0189 H   0  0  0  0  0  0  0  0  0  0  0  0
   -3.3821   -1.2459    1.7268 H   0  0  0  0  0  0  0  0  0  0  0  0
   -0.1612   -1.4020   -1.7969 H   0  0  0  0  0  0  0  0  0  0  0  0
    3.3462   -1.3039   -1.7836 H   0  0  0  0  0  0  0  0  0  0  0  0
    4.6083   -0.0623   -0.0336 H   0  0  0  0  0  0  0  0  0  0  0  0
    3.3722    1.1974    1.7448 H   0  0  0  0  0  0  0  0  0  0  0  0
  1 17  1  0  0  0  0
  1  2  1  0  0  0  0
  2  3  2  0  0  0  0
  2  8  1  0  0  0  0
  3  4  1  0  0  0  0
  4 21  1  0  0  0  0
  4  5  2  0  0  0  0
  5 22  1  0  0  0  0
  6  5  1  0  0  0  0
  6  7  1  0  0  0  0
  8  9  1  0  0  0  0
  8  6  2  0  0  0  0
  9 15  1  0  0  0  0
 10  9  2  0  0  0  0
 11 23  1  0  0  0  0
 11 10  1  0  0  0  0
 12 10  1  0  0  0  0
 12 13  2  0  0  0  0
 13 14  1  0  0  0  0
 14 26  1  0  0  0  0
 15 14  2  0  0  0  0
 15 16  1  0  0  0  0
 18  1  1  0  0  0  0
 19  1  1  0  0  0  0
 20  3  1  0  0  0  0
 24 12  1  0  0  0  0
 25 13  1  0  0  0  0
M  END
$$$$
