G(CENSO)=        -776.05208361  G(xTB)=         -46.31754332        !CONF4
 OpenBabel12022516373D

 26 27  0  0  0  0  0  0  0  0999 V2000
   -0.7207    1.6197   -1.9904 C   0  0  0  0  0  0  0  0  0  0  0  0
   -1.4652    0.7916   -0.9876 C   0  0  0  0  0  0  0  0  0  0  0  0
   -2.8531    0.7852   -0.9498 C   0  0  0  0  0  0  0  0  0  0  0  0
   -3.5419    0.0373   -0.0107 C   0  0  0  0  0  0  0  0  0  0  0  0
   -2.8531   -0.7256    0.9147 C   0  0  0  0  0  0  0  0  0  0  0  0
   -1.4720   -0.7201    0.8752 C   0  0  0  0  0  0  0  0  0  0  0  0
   -0.7923   -1.4770    1.7617 F   0  0  0  0  0  0  0  0  0  0  0  0
   -0.7580    0.0207   -0.0594 C   0  0  0  0  0  0  0  0  0  0  0  0
    0.7258   -0.0030   -0.0472 C   0  0  0  0  0  0  0  0  0  0  0  0
    1.4427   -0.7599   -0.9783 C   0  0  0  0  0  0  0  0  0  0  0  0
    0.8108   -1.4963   -1.9268 O   0  0  0  0  0  0  0  0  0  0  0  0
    2.8331   -0.7683   -0.9494 C   0  0  0  0  0  0  0  0  0  0  0  0
    3.5134   -0.0360    0.0035 C   0  0  0  0  0  0  0  0  0  0  0  0
    2.8246    0.7164    0.9397 C   0  0  0  0  0  0  0  0  0  0  0  0
    1.4443    0.7171    0.8976 C   0  0  0  0  0  0  0  0  0  0  0  0
    0.7624    1.4635    1.7926 F   0  0  0  0  0  0  0  0  0  0  0  0
   -1.4075    2.2367   -2.5633 H   0  0  0  0  0  0  0  0  0  0  0  0
   -0.0037    2.2665   -1.4869 H   0  0  0  0  0  0  0  0  0  0  0  0
   -0.1633    0.9894   -2.6830 H   0  0  0  0  0  0  0  0  0  0  0  0
   -3.4007    1.3823   -1.6635 H   0  0  0  0  0  0  0  0  0  0  0  0
   -4.6207    0.0513    0.0034 H   0  0  0  0  0  0  0  0  0  0  0  0
   -3.3624   -1.3151    1.6597 H   0  0  0  0  0  0  0  0  0  0  0  0
   -0.1459   -1.4450   -1.7951 H   0  0  0  0  0  0  0  0  0  0  0  0
    3.3565   -1.3613   -1.6814 H   0  0  0  0  0  0  0  0  0  0  0  0
    4.5918   -0.0516    0.0195 H   0  0  0  0  0  0  0  0  0  0  0  0
    3.3352    1.2938    1.6927 H   0  0  0  0  0  0  0  0  0  0  0  0
  1 18  1  0  0  0  0
  1  2  1  0  0  0  0
  2  3  2  0  0  0  0
  2  8  1  0  0  0  0
  3  4  1  0  0  0  0
  4 21  1  0  0  0  0
  4  5  2  0  0  0  0
  5 22  1  0  0  0  0
  6  5  1  0  0  0  0
  6  7  1  0  0  0  0
  8  9  1  0  0  0  0
  8  6  2  0  0  0  0
  9 15  1  0  0  0  0
 10 12  1  0  0  0  0
 10  9  2  0  0  0  0
 11 23  1  0  0  0  0
 11 10  1  0  0  0  0
 12 13  2  0  0  0  0
 13 25  1  0  0  0  0
 13 14  1  0  0  0  0
 14 26  1  0  0  0  0
 15 14  2  0  0  0  0
 15 16  1  0  0  0  0
 17  1  1  0  0  0  0
 19  1  1  0  0  0  0
 20  3  1  0  0  0  0
 24 12  1  0  0  0  0
M  END
$$$$
