energy: -46.467126083104 gnorm: 0.000396315112 xtb: 6.6.1 (8d0f1dd)
 OpenBabel12022516373D

 26 27  0  0  0  0  0  0  0  0999 V2000
   -1.0346    2.0452   -0.7528 C   0  0  0  0  0  0  0  0  0  0  0  0
   -1.5672    0.7312   -0.2703 C   0  0  0  0  0  0  0  0  0  0  0  0
   -2.9349    0.5345   -0.1280 C   0  0  0  0  0  0  0  0  0  0  0  0
   -3.4463   -0.6698    0.3199 C   0  0  0  0  0  0  0  0  0  0  0  0
   -2.5929   -1.7103    0.6410 C   0  0  0  0  0  0  0  0  0  0  0  0
   -1.2342   -1.5135    0.4983 C   0  0  0  0  0  0  0  0  0  0  0  0
   -0.3983   -2.5335    0.7946 F   0  0  0  0  0  0  0  0  0  0  0  0
   -0.6973   -0.3149    0.0423 C   0  0  0  0  0  0  0  0  0  0  0  0
    0.7703   -0.1896   -0.0895 C   0  0  0  0  0  0  0  0  0  0  0  0
    1.5860   -0.2270    1.0483 C   0  0  0  0  0  0  0  0  0  0  0  0
    0.9776   -0.3065    2.2569 O   0  0  0  0  0  0  0  0  0  0  0  0
    2.9679   -0.1576    0.9183 C   0  0  0  0  0  0  0  0  0  0  0  0
    3.5511   -0.0521   -0.3314 C   0  0  0  0  0  0  0  0  0  0  0  0
    2.7655   -0.0091   -1.4684 C   0  0  0  0  0  0  0  0  0  0  0  0
    1.3923   -0.0808   -1.3247 C   0  0  0  0  0  0  0  0  0  0  0  0
    0.6266   -0.0543   -2.4368 F   0  0  0  0  0  0  0  0  0  0  0  0
   -0.1114    2.3033   -0.2376 H   0  0  0  0  0  0  0  0  0  0  0  0
   -1.7640    2.8352   -0.5933 H   0  0  0  0  0  0  0  0  0  0  0  0
   -0.8204    1.9903   -1.8201 H   0  0  0  0  0  0  0  0  0  0  0  0
   -3.6086    1.3428   -0.3716 H   0  0  0  0  0  0  0  0  0  0  0  0
   -4.5128   -0.8004    0.4223 H   0  0  0  0  0  0  0  0  0  0  0  0
   -2.9607   -2.6604    0.9941 H   0  0  0  0  0  0  0  0  0  0  0  0
    1.6391   -0.3774    2.9555 H   0  0  0  0  0  0  0  0  0  0  0  0
    3.5861   -0.1908    1.8050 H   0  0  0  0  0  0  0  0  0  0  0  0
    4.6253   -0.0038   -0.4185 H   0  0  0  0  0  0  0  0  0  0  0  0
    3.1956    0.0693   -2.4534 H   0  0  0  0  0  0  0  0  0  0  0  0
  1 18  1  0  0  0  0
  1  2  1  0  0  0  0
  1 17  1  0  0  0  0
  2  3  2  0  0  0  0
  2  8  1  0  0  0  0
  3  4  1  0  0  0  0
  4 21  1  0  0  0  0
  4  5  2  0  0  0  0
  5 22  1  0  0  0  0
  6  5  1  0  0  0  0
  6  7  1  0  0  0  0
  8  6  2  0  0  0  0
  9  8  1  0  0  0  0
  9 10  1  0  0  0  0
 10 11  1  0  0  0  0
 11 23  1  0  0  0  0
 12 10  2  0  0  0  0
 12 24  1  0  0  0  0
 13 12  1  0  0  0  0
 14 15  1  0  0  0  0
 14 13  2  0  0  0  0
 15  9  2  0  0  0  0
 16 15  1  0  0  0  0
 19  1  1  0  0  0  0
 20  3  1  0  0  0  0
 25 13  1  0  0  0  0
 26 14  1  0  0  0  0
M  END
$$$$
