 xtb: 6.6.1 (8d0f1dd)
          07232612553D

 26 27  0     0  0            999 V2000
    1.2052    1.9872    0.6446 C   0  0  0  0  0  0  0  0  0  0  0  0
    1.6200    0.6627    0.0822 C   0  0  0  0  0  0  0  0  0  0  0  0
    2.9490    0.4131   -0.2346 C   0  0  0  0  0  0  0  0  0  0  0  0
    3.3481   -0.8025   -0.7598 C   0  0  0  0  0  0  0  0  0  0  0  0
    2.4175   -1.8011   -0.9847 C   0  0  0  0  0  0  0  0  0  0  0  0
    1.0970   -1.5513   -0.6694 C   0  0  0  0  0  0  0  0  0  0  0  0
    0.1869   -2.5299   -0.8724 F   0  0  0  0  0  0  0  0  0  0  0  0
    0.6737   -0.3409   -0.1332 C   0  0  0  0  0  0  0  0  0  0  0  0
   -0.7596   -0.1588    0.1835 C   0  0  0  0  0  0  0  0  0  0  0  0
   -1.7105   -0.1270   -0.8440 C   0  0  0  0  0  0  0  0  0  0  0  0
   -1.2605   -0.1916   -2.1210 O   0  0  0  0  0  0  0  0  0  0  0  0
   -3.0613   -0.0084   -0.5403 C   0  0  0  0  0  0  0  0  0  0  0  0
   -3.4809    0.0781    0.7747 C   0  0  0  0  0  0  0  0  0  0  0  0
   -2.5597    0.0525    1.8053 C   0  0  0  0  0  0  0  0  0  0  0  0
   -1.2193   -0.0677    1.4889 C   0  0  0  0  0  0  0  0  0  0  0  0
   -0.3214   -0.1085    2.4971 F   0  0  0  0  0  0  0  0  0  0  0  0
    0.2793    2.3293    0.1854 H   0  0  0  0  0  0  0  0  0  0  0  0
    1.0362    1.9013    1.7175 H   0  0  0  0  0  0  0  0  0  0  0  0
    1.9795    2.7324    0.4809 H   0  0  0  0  0  0  0  0  0  0  0  0
    3.6823    1.1883   -0.0678 H   0  0  0  0  0  0  0  0  0  0  0  0
    4.3867   -0.9743   -0.9980 H   0  0  0  0  0  0  0  0  0  0  0  0
    2.6970   -2.7589   -1.3935 H   0  0  0  0  0  0  0  0  0  0  0  0
   -2.0063   -0.2135   -2.7326 H   0  0  0  0  0  0  0  0  0  0  0  0
   -3.7855    0.0112   -1.3433 H   0  0  0  0  0  0  0  0  0  0  0  0
   -4.5332    0.1644    0.9962 H   0  0  0  0  0  0  0  0  0  0  0  0
   -2.8605    0.1139    2.8383 H   0  0  0  0  0  0  0  0  0  0  0  0
  1  2  1  0  0  0  0
  2  3  4  0  0  0  0
  3  4  4  0  0  0  0
  4  5  4  0  0  0  0
  5  6  4  0  0  0  0
  6  7  1  0  0  0  0
  2  8  4  0  0  0  0
  6  8  4  0  0  0  0
  8  9  1  0  0  0  0
  9 10  4  0  0  0  0
 10 11  1  0  0  0  0
 10 12  4  0  0  0  0
 12 13  4  0  0  0  0
 13 14  4  0  0  0  0
  9 15  4  0  0  0  0
 14 15  4  0  0  0  0
 15 16  1  0  0  0  0
  1 17  1  0  0  0  0
  1 18  1  0  0  0  0
  1 19  1  0  0  0  0
  3 20  1  0  0  0  0
  4 21  1  0  0  0  0
  5 22  1  0  0  0  0
 11 23  1  0  0  0  0
 12 24  1  0  0  0  0
 13 25  1  0  0  0  0
 14 26  1  0  0  0  0
M  END
