G(CENSO)=        -776.03802821  G(xTB)=         -46.31752443        !CONF2
 OpenBabel07232613183D

 26 27  0  0  0  0  0  0  0  0999 V2000
   -0.7244    1.6149   -1.9972 C   0  0  0  0  0  0  0  0  0  0  0  0
   -1.4666    0.7875   -0.9923 C   0  0  0  0  0  0  0  0  0  0  0  0
   -2.8545    0.7795   -0.9535 C   0  0  0  0  0  0  0  0  0  0  0  0
   -3.5419    0.0356   -0.0101 C   0  0  0  0  0  0  0  0  0  0  0  0
   -2.8518   -0.7215    0.9190 C   0  0  0  0  0  0  0  0  0  0  0  0
   -1.4706   -0.7149    0.8783 C   0  0  0  0  0  0  0  0  0  0  0  0
   -0.7892   -1.4663    1.7681 F   0  0  0  0  0  0  0  0  0  0  0  0
   -0.7580    0.0218   -0.0606 C   0  0  0  0  0  0  0  0  0  0  0  0
    0.7257   -0.0016   -0.0486 C   0  0  0  0  0  0  0  0  0  0  0  0
    1.4425   -0.7555   -0.9825 C   0  0  0  0  0  0  0  0  0  0  0  0
    0.8107   -1.4865   -1.9353 O   0  0  0  0  0  0  0  0  0  0  0  0
    2.8328   -0.7672   -0.9513 C   0  0  0  0  0  0  0  0  0  0  0  0
    3.5134   -0.0409    0.0060 C   0  0  0  0  0  0  0  0  0  0  0  0
    2.8246    0.7088    0.9444 C   0  0  0  0  0  0  0  0  0  0  0  0
    1.4444    0.7126    0.9005 C   0  0  0  0  0  0  0  0  0  0  0  0
    0.7629    1.4559    1.7980 F   0  0  0  0  0  0  0  0  0  0  0  0
   -1.4153    2.2053   -2.5928 H   0  0  0  0  0  0  0  0  0  0  0  0
   -0.0330    2.2882   -1.4920 H   0  0  0  0  0  0  0  0  0  0  0  0
   -0.1384    0.9876   -2.6684 H   0  0  0  0  0  0  0  0  0  0  0  0
   -3.4039    1.3713   -1.6702 H   0  0  0  0  0  0  0  0  0  0  0  0
   -4.6208    0.0473    0.0042 H   0  0  0  0  0  0  0  0  0  0  0  0
   -3.3599   -1.3076    1.6675 H   0  0  0  0  0  0  0  0  0  0  0  0
   -0.1461   -1.4335   -1.8057 H   0  0  0  0  0  0  0  0  0  0  0  0
    3.3560   -1.3585   -1.6849 H   0  0  0  0  0  0  0  0  0  0  0  0
    4.5918   -0.0592    0.0241 H   0  0  0  0  0  0  0  0  0  0  0  0
    3.3353    1.2816    1.7009 H   0  0  0  0  0  0  0  0  0  0  0  0
  1 18  1  0  0  0  0
  1  2  1  0  0  0  0
  2  3  2  0  0  0  0
  2  8  1  0  0  0  0
  3  4  1  0  0  0  0
  4 21  1  0  0  0  0
  4  5  2  0  0  0  0
  5 22  1  0  0  0  0
  6  5  1  0  0  0  0
  6  7  1  0  0  0  0
  8  9  1  0  0  0  0
  8  6  2  0  0  0  0
  9 15  1  0  0  0  0
 10 12  1  0  0  0  0
 10  9  2  0  0  0  0
 11 23  1  0  0  0  0
 11 10  1  0  0  0  0
 12 13  2  0  0  0  0
 13 25  1  0  0  0  0
 13 14  1  0  0  0  0
 14 26  1  0  0  0  0
 15 14  2  0  0  0  0
 15 16  1  0  0  0  0
 17  1  1  0  0  0  0
 19  1  1  0  0  0  0
 20  3  1  0  0  0  0
 24 12  1  0  0  0  0
M  END
$$$$
