G(CENSO)=        -776.03911312  G(xTB)=         -46.31734423        !CONF4
 OpenBabel07232613183D

 26 27  0  0  0  0  0  0  0  0999 V2000
   -0.7328    1.5565   -2.0654 C   0  0  0  0  0  0  0  0  0  0  0  0
   -1.4708    0.7541   -1.0297 C   0  0  0  0  0  0  0  0  0  0  0  0
   -2.8670    0.7359   -1.0022 C   0  0  0  0  0  0  0  0  0  0  0  0
   -3.5601    0.0273   -0.0266 C   0  0  0  0  0  0  0  0  0  0  0  0
   -2.8726   -0.6811    0.9511 C   0  0  0  0  0  0  0  0  0  0  0  0
   -1.4900   -0.6610    0.9133 C   0  0  0  0  0  0  0  0  0  0  0  0
   -0.8133   -1.3487    1.8556 F   0  0  0  0  0  0  0  0  0  0  0  0
   -0.7587    0.0281   -0.0526 C   0  0  0  0  0  0  0  0  0  0  0  0
    0.7218   -0.0127   -0.0368 C   0  0  0  0  0  0  0  0  0  0  0  0
    1.4374   -0.7240   -1.0128 C   0  0  0  0  0  0  0  0  0  0  0  0
    0.7915   -1.4297   -1.9826 O   0  0  0  0  0  0  0  0  0  0  0  0
    2.8308   -0.7367   -1.0186 C   0  0  0  0  0  0  0  0  0  0  0  0
    3.5235   -0.0463   -0.0340 C   0  0  0  0  0  0  0  0  0  0  0  0
    2.8503    0.6551    0.9632 C   0  0  0  0  0  0  0  0  0  0  0  0
    1.4679    0.6470    0.9345 C   0  0  0  0  0  0  0  0  0  0  0  0
    0.7947    1.3296    1.8863 F   0  0  0  0  0  0  0  0  0  0  0  0
   -1.4178    2.2174   -2.5997 H   0  0  0  0  0  0  0  0  0  0  0  0
    0.0509    2.1623   -1.6018 H   0  0  0  0  0  0  0  0  0  0  0  0
   -0.2401    0.9115   -2.8012 H   0  0  0  0  0  0  0  0  0  0  0  0
   -3.4166    1.2987   -1.7500 H   0  0  0  0  0  0  0  0  0  0  0  0
   -4.6451    0.0312   -0.0218 H   0  0  0  0  0  0  0  0  0  0  0  0
   -3.3809   -1.2379    1.7296 H   0  0  0  0  0  0  0  0  0  0  0  0
   -0.1593   -1.4020   -1.7981 H   0  0  0  0  0  0  0  0  0  0  0  0
    3.3473   -1.2977   -1.7884 H   0  0  0  0  0  0  0  0  0  0  0  0
    4.6082   -0.0586   -0.0366 H   0  0  0  0  0  0  0  0  0  0  0  0
    3.3708    1.1950    1.7448 H   0  0  0  0  0  0  0  0  0  0  0  0
  1 18  1  0  0  0  0
  1  2  1  0  0  0  0
  2  3  2  0  0  0  0
  2  8  1  0  0  0  0
  3  4  1  0  0  0  0
  4 21  1  0  0  0  0
  4  5  2  0  0  0  0
  5 22  1  0  0  0  0
  6  5  1  0  0  0  0
  6  7  1  0  0  0  0
  8  9  1  0  0  0  0
  8  6  2  0  0  0  0
  9 15  1  0  0  0  0
 10  9  2  0  0  0  0
 11 23  1  0  0  0  0
 11 10  1  0  0  0  0
 12 10  1  0  0  0  0
 12 13  2  0  0  0  0
 13 14  1  0  0  0  0
 14 26  1  0  0  0  0
 15 14  2  0  0  0  0
 15 16  1  0  0  0  0
 17  1  1  0  0  0  0
 19  1  1  0  0  0  0
 20  3  1  0  0  0  0
 24 12  1  0  0  0  0
 25 13  1  0  0  0  0
M  END
$$$$
