energy: -46.466465608227 gnorm: 0.000739681479 xtb: 6.6.1 (8d0f1dd)
 OpenBabel12022516373D

 26 27  0  0  0  0  0  0  0  0999 V2000
   -1.2905   -1.8147   -0.6770 C   0  0  0  0  0  0  0  0  0  0  0  0
   -1.6453   -0.4840   -0.0895 C   0  0  0  0  0  0  0  0  0  0  0  0
   -2.9568   -0.1645    0.2332 C   0  0  0  0  0  0  0  0  0  0  0  0
   -3.2817    1.0637    0.7818 C   0  0  0  0  0  0  0  0  0  0  0  0
   -2.2945    2.0019    1.0217 C   0  0  0  0  0  0  0  0  0  0  0  0
   -0.9900    1.6802    0.7007 C   0  0  0  0  0  0  0  0  0  0  0  0
   -0.0181    2.5900    0.9365 F   0  0  0  0  0  0  0  0  0  0  0  0
   -0.6418    0.4561    0.1480 C   0  0  0  0  0  0  0  0  0  0  0  0
    0.7767    0.1737   -0.1741 C   0  0  0  0  0  0  0  0  0  0  0  0
    1.6157   -0.4265    0.7699 C   0  0  0  0  0  0  0  0  0  0  0  0
    1.0738   -0.7728    1.9656 O   0  0  0  0  0  0  0  0  0  0  0  0
    2.9517   -0.6583    0.4667 C   0  0  0  0  0  0  0  0  0  0  0  0
    3.4632   -0.3000   -0.7676 C   0  0  0  0  0  0  0  0  0  0  0  0
    2.6506    0.2906   -1.7174 C   0  0  0  0  0  0  0  0  0  0  0  0
    1.3239    0.5177   -1.4005 C   0  0  0  0  0  0  0  0  0  0  0  0
    0.5238    1.0871   -2.3262 F   0  0  0  0  0  0  0  0  0  0  0  0
   -0.7375   -1.6875   -1.6058 H   0  0  0  0  0  0  0  0  0  0  0  0
   -0.6572   -2.3701    0.0131 H   0  0  0  0  0  0  0  0  0  0  0  0
   -2.1835   -2.3992   -0.8782 H   0  0  0  0  0  0  0  0  0  0  0  0
   -3.7356   -0.8901    0.0504 H   0  0  0  0  0  0  0  0  0  0  0  0
   -4.3082    1.2926    1.0242 H   0  0  0  0  0  0  0  0  0  0  0  0
   -2.5171    2.9669    1.4480 H   0  0  0  0  0  0  0  0  0  0  0  0
    1.7579   -1.1299    2.5445 H   0  0  0  0  0  0  0  0  0  0  0  0
    3.5921   -1.1189    1.2067 H   0  0  0  0  0  0  0  0  0  0  0  0
    4.5030   -0.4833   -0.9891 H   0  0  0  0  0  0  0  0  0  0  0  0
    3.0255    0.5792   -2.6856 H   0  0  0  0  0  0  0  0  0  0  0  0
  1  2  1  0  0  0  0
  1 18  1  0  0  0  0
  2  8  2  0  0  0  0
  2  3  1  0  0  0  0
  3  4  2  0  0  0  0
  4  5  1  0  0  0  0
  4 21  1  0  0  0  0
  5 22  1  0  0  0  0
  6  7  1  0  0  0  0
  6  5  2  0  0  0  0
  8  6  1  0  0  0  0
  9  8  1  0  0  0  0
  9 10  1  0  0  0  0
 10 11  1  0  0  0  0
 11 23  1  0  0  0  0
 12 10  2  0  0  0  0
 12 24  1  0  0  0  0
 13 12  1  0  0  0  0
 14 15  1  0  0  0  0
 14 13  2  0  0  0  0
 15  9  2  0  0  0  0
 16 15  1  0  0  0  0
 17  1  1  0  0  0  0
 19  1  1  0  0  0  0
 20  3  1  0  0  0  0
 25 13  1  0  0  0  0
 26 14  1  0  0  0  0
M  END
$$$$
