energy: -46.467124983615 gnorm: 0.000325201272 xtb: 6.6.1 (8d0f1dd)
 OpenBabel07232612553D

 26 27  0  0  0  0  0  0  0  0999 V2000
    1.7931   -0.7984   -1.2732 C   0  0  0  0  0  0  0  0  0  0  0  0
    1.7447   -0.0287    0.0105 C   0  0  0  0  0  0  0  0  0  0  0  0
    2.9109    0.4346    0.6052 C   0  0  0  0  0  0  0  0  0  0  0  0
    2.8799    1.1509    1.7882 C   0  0  0  0  0  0  0  0  0  0  0  0
    1.6717    1.4238    2.4038 C   0  0  0  0  0  0  0  0  0  0  0  0
    0.5133    0.9629    1.8106 C   0  0  0  0  0  0  0  0  0  0  0  0
   -0.6688    1.2153    2.4155 F   0  0  0  0  0  0  0  0  0  0  0  0
    0.5203    0.2351    0.6271 C   0  0  0  0  0  0  0  0  0  0  0  0
   -0.7643   -0.2266    0.0569 C   0  0  0  0  0  0  0  0  0  0  0  0
   -1.6827    0.6992   -0.4524 C   0  0  0  0  0  0  0  0  0  0  0  0
   -1.3200    2.0052   -0.4628 O   0  0  0  0  0  0  0  0  0  0  0  0
   -2.9073    0.2666   -0.9471 C   0  0  0  0  0  0  0  0  0  0  0  0
   -3.2319   -1.0777   -0.9405 C   0  0  0  0  0  0  0  0  0  0  0  0
   -2.3393   -2.0101   -0.4449 C   0  0  0  0  0  0  0  0  0  0  0  0
   -1.1256   -1.5656    0.0454 C   0  0  0  0  0  0  0  0  0  0  0  0
   -0.2591   -2.4750    0.5416 F   0  0  0  0  0  0  0  0  0  0  0  0
    1.0211   -0.4534   -1.9590 H   0  0  0  0  0  0  0  0  0  0  0  0
    1.6222   -1.8571   -1.0810 H   0  0  0  0  0  0  0  0  0  0  0  0
    2.7646   -0.6909   -1.7486 H   0  0  0  0  0  0  0  0  0  0  0  0
    3.8591    0.2312    0.1298 H   0  0  0  0  0  0  0  0  0  0  0  0
    3.7991    1.5008    2.2328 H   0  0  0  0  0  0  0  0  0  0  0  0
    1.6149    1.9802    3.3256 H   0  0  0  0  0  0  0  0  0  0  0  0
   -2.0491    2.5471   -0.7868 H   0  0  0  0  0  0  0  0  0  0  0  0
   -3.6088    0.9923   -1.3351 H   0  0  0  0  0  0  0  0  0  0  0  0
   -4.1877   -1.3995   -1.3234 H   0  0  0  0  0  0  0  0  0  0  0  0
   -2.5700   -3.0625   -0.4249 H   0  0  0  0  0  0  0  0  0  0  0  0
  1 18  1  0  0  0  0
  1  2  1  0  0  0  0
  2  3  2  0  0  0  0
  2  8  1  0  0  0  0
  3  4  1  0  0  0  0
  4 21  1  0  0  0  0
  4  5  2  0  0  0  0
  5 22  1  0  0  0  0
  6  5  1  0  0  0  0
  6  7  1  0  0  0  0
  8  6  2  0  0  0  0
  9  8  1  0  0  0  0
 10  9  2  0  0  0  0
 11 10  1  0  0  0  0
 12 13  2  0  0  0  0
 12 10  1  0  0  0  0
 13 14  1  0  0  0  0
 14 26  1  0  0  0  0
 14 15  2  0  0  0  0
 15  9  1  0  0  0  0
 15 16  1  0  0  0  0
 17  1  1  0  0  0  0
 19  1  1  0  0  0  0
 20  3  1  0  0  0  0
 23 11  1  0  0  0  0
 24 12  1  0  0  0  0
 25 13  1  0  0  0  0
M  END
$$$$
