energy: -46.467137533376 gnorm: 0.000671324960 xtb: 6.6.1 (8d0f1dd)
 OpenBabel07232612553D

 26 27  0  0  0  0  0  0  0  0999 V2000
    0.7098    2.2637    0.4172 C   0  0  0  0  0  0  0  0  0  0  0  0
    1.4198    1.0222   -0.0264 C   0  0  0  0  0  0  0  0  0  0  0  0
    2.7946    1.0270   -0.2239 C   0  0  0  0  0  0  0  0  0  0  0  0
    3.4678   -0.1109   -0.6297 C   0  0  0  0  0  0  0  0  0  0  0  0
    2.7746   -1.2886   -0.8442 C   0  0  0  0  0  0  0  0  0  0  0  0
    1.4083   -1.2917   -0.6473 C   0  0  0  0  0  0  0  0  0  0  0  0
    0.7252   -2.4363   -0.8717 F   0  0  0  0  0  0  0  0  0  0  0  0
    0.7090   -0.1588   -0.2481 C   0  0  0  0  0  0  0  0  0  0  0  0
   -0.7566   -0.2438   -0.0685 C   0  0  0  0  0  0  0  0  0  0  0  0
   -1.2987   -1.0405    0.9474 C   0  0  0  0  0  0  0  0  0  0  0  0
   -0.4366   -1.6618    1.7887 O   0  0  0  0  0  0  0  0  0  0  0  0
   -2.6771   -1.1537    1.0841 C   0  0  0  0  0  0  0  0  0  0  0  0
   -3.5258   -0.4846    0.2213 C   0  0  0  0  0  0  0  0  0  0  0  0
   -3.0131    0.3096   -0.7876 C   0  0  0  0  0  0  0  0  0  0  0  0
   -1.6402    0.4117   -0.9135 C   0  0  0  0  0  0  0  0  0  0  0  0
   -1.1403    1.1741   -1.9099 F   0  0  0  0  0  0  0  0  0  0  0  0
    0.2268    2.7414   -0.4341 H   0  0  0  0  0  0  0  0  0  0  0  0
   -0.0586    2.0294    1.1509 H   0  0  0  0  0  0  0  0  0  0  0  0
    1.4107    2.9721    0.8505 H   0  0  0  0  0  0  0  0  0  0  0  0
    3.3454    1.9404   -0.0538 H   0  0  0  0  0  0  0  0  0  0  0  0
    4.5367   -0.0836   -0.7775 H   0  0  0  0  0  0  0  0  0  0  0  0
    3.2708   -2.1926   -1.1594 H   0  0  0  0  0  0  0  0  0  0  0  0
   -0.9232   -2.2232    2.4038 H   0  0  0  0  0  0  0  0  0  0  0  0
   -3.0826   -1.7747    1.8712 H   0  0  0  0  0  0  0  0  0  0  0  0
   -4.5938   -0.5845    0.3362 H   0  0  0  0  0  0  0  0  0  0  0  0
   -3.6527    0.8377   -1.4756 H   0  0  0  0  0  0  0  0  0  0  0  0
  1 19  1  0  0  0  0
  1 18  1  0  0  0  0
  2  1  1  0  0  0  0
  3 20  1  0  0  0  0
  3  2  1  0  0  0  0
  4  3  2  0  0  0  0
  5  6  2  0  0  0  0
  5  4  1  0  0  0  0
  6  8  1  0  0  0  0
  7  6  1  0  0  0  0
  8  9  1  0  0  0  0
  8  2  2  0  0  0  0
  9 10  1  0  0  0  0
 10 12  2  0  0  0  0
 10 11  1  0  0  0  0
 11 23  1  0  0  0  0
 12 24  1  0  0  0  0
 13 25  1  0  0  0  0
 13 12  1  0  0  0  0
 14 13  2  0  0  0  0
 15 14  1  0  0  0  0
 15  9  2  0  0  0  0
 16 15  1  0  0  0  0
 17  1  1  0  0  0  0
 21  4  1  0  0  0  0
 22  5  1  0  0  0  0
 26 14  1  0  0  0  0
M  END
$$$$
