 xtb: 6.6.1 (8d0f1dd)
          07232612553D

 26 27  0     0  0            999 V2000
    1.3086    0.9976   -1.7558 C   0  0  0  0  0  0  0  0  0  0  0  0
    1.6545    0.2210   -0.5231 C   0  0  0  0  0  0  0  0  0  0  0  0
    2.9807    0.0083   -0.1696 C   0  0  0  0  0  0  0  0  0  0  0  0
    3.3173   -0.7005    0.9694 C   0  0  0  0  0  0  0  0  0  0  0  0
    2.3262   -1.2126    1.7873 C   0  0  0  0  0  0  0  0  0  0  0  0
    1.0085   -1.0006    1.4342 C   0  0  0  0  0  0  0  0  0  0  0  0
    0.0369   -1.5130    2.2218 F   0  0  0  0  0  0  0  0  0  0  0  0
    0.6461   -0.2983    0.2910 C   0  0  0  0  0  0  0  0  0  0  0  0
   -0.7889   -0.1205   -0.0197 C   0  0  0  0  0  0  0  0  0  0  0  0
   -1.6005    0.6567    0.8159 C   0  0  0  0  0  0  0  0  0  0  0  0
   -1.0096    1.2832    1.8622 O   0  0  0  0  0  0  0  0  0  0  0  0
   -2.9578    0.7859    0.5456 C   0  0  0  0  0  0  0  0  0  0  0  0
   -3.5199    0.1512   -0.5467 C   0  0  0  0  0  0  0  0  0  0  0  0
   -2.7373   -0.6192   -1.3870 C   0  0  0  0  0  0  0  0  0  0  0  0
   -1.3895   -0.7415   -1.1051 C   0  0  0  0  0  0  0  0  0  0  0  0
   -0.6287   -1.5073   -1.9166 F   0  0  0  0  0  0  0  0  0  0  0  0
    0.4785    1.6754   -1.5653 H   0  0  0  0  0  0  0  0  0  0  0  0
    2.1644    1.5725   -2.0998 H   0  0  0  0  0  0  0  0  0  0  0  0
    1.0114    0.3193   -2.5548 H   0  0  0  0  0  0  0  0  0  0  0  0
    3.7620    0.4083   -0.7990 H   0  0  0  0  0  0  0  0  0  0  0  0
    4.3548   -0.8539    1.2244 H   0  0  0  0  0  0  0  0  0  0  0  0
    2.5570   -1.7683    2.6820 H   0  0  0  0  0  0  0  0  0  0  0  0
   -1.6731    1.7395    2.3931 H   0  0  0  0  0  0  0  0  0  0  0  0
   -3.5739    1.3866    1.2009 H   0  0  0  0  0  0  0  0  0  0  0  0
   -4.5755    0.2571   -0.7430 H   0  0  0  0  0  0  0  0  0  0  0  0
   -3.1523   -1.1270   -2.2420 H   0  0  0  0  0  0  0  0  0  0  0  0
  1  2  1  0  0  0  0
  2  3  4  0  0  0  0
  3  4  4  0  0  0  0
  4  5  4  0  0  0  0
  5  6  4  0  0  0  0
  6  7  1  0  0  0  0
  2  8  4  0  0  0  0
  6  8  4  0  0  0  0
  8  9  1  0  0  0  0
  9 10  4  0  0  0  0
 10 11  1  0  0  0  0
 10 12  4  0  0  0  0
 12 13  4  0  0  0  0
 13 14  4  0  0  0  0
  9 15  4  0  0  0  0
 14 15  4  0  0  0  0
 15 16  1  0  0  0  0
  1 17  1  0  0  0  0
  1 18  1  0  0  0  0
  1 19  1  0  0  0  0
  3 20  1  0  0  0  0
  4 21  1  0  0  0  0
  5 22  1  0  0  0  0
 11 23  1  0  0  0  0
 12 24  1  0  0  0  0
 13 25  1  0  0  0  0
 14 26  1  0  0  0  0
M  END
