energy: -46.467132168085 gnorm: 0.000204752125 xtb: 6.6.1 (8d0f1dd)
 OpenBabel07232612553D

 26 27  0  0  0  0  0  0  0  0999 V2000
   -1.0606   -1.6666    1.3877 C   0  0  0  0  0  0  0  0  0  0  0  0
   -1.5579   -0.4477    0.6740 C   0  0  0  0  0  0  0  0  0  0  0  0
   -2.8806   -0.0433    0.7979 C   0  0  0  0  0  0  0  0  0  0  0  0
   -3.3529    1.0828    0.1482 C   0  0  0  0  0  0  0  0  0  0  0  0
   -2.5044    1.8354   -0.6435 C   0  0  0  0  0  0  0  0  0  0  0  0
   -1.1894    1.4327   -0.7644 C   0  0  0  0  0  0  0  0  0  0  0  0
   -0.3598    2.1573   -1.5480 F   0  0  0  0  0  0  0  0  0  0  0  0
   -0.6939    0.3020   -0.1264 C   0  0  0  0  0  0  0  0  0  0  0  0
    0.7292   -0.0596   -0.3059 C   0  0  0  0  0  0  0  0  0  0  0  0
    1.7342    0.7633    0.2172 C   0  0  0  0  0  0  0  0  0  0  0  0
    1.3503    1.8443    0.9394 O   0  0  0  0  0  0  0  0  0  0  0  0
    3.0716    0.4480    0.0104 C   0  0  0  0  0  0  0  0  0  0  0  0
    3.4241   -0.6771   -0.7127 C   0  0  0  0  0  0  0  0  0  0  0  0
    2.4489   -1.5056   -1.2361 C   0  0  0  0  0  0  0  0  0  0  0  0
    1.1224   -1.1789   -1.0243 C   0  0  0  0  0  0  0  0  0  0  0  0
    0.1701   -1.9809   -1.5484 F   0  0  0  0  0  0  0  0  0  0  0  0
   -0.0884   -1.4792    1.8404 H   0  0  0  0  0  0  0  0  0  0  0  0
   -1.7604   -1.9701    2.1619 H   0  0  0  0  0  0  0  0  0  0  0  0
   -0.9500   -2.4921    0.6853 H   0  0  0  0  0  0  0  0  0  0  0  0
   -3.5501   -0.6213    1.4177 H   0  0  0  0  0  0  0  0  0  0  0  0
   -4.3849    1.3786    0.2597 H   0  0  0  0  0  0  0  0  0  0  0  0
   -2.8423    2.7179   -1.1627 H   0  0  0  0  0  0  0  0  0  0  0  0
    2.1237    2.3596    1.1979 H   0  0  0  0  0  0  0  0  0  0  0  0
    3.8378    1.0938    0.4173 H   0  0  0  0  0  0  0  0  0  0  0  0
    4.4663   -0.9075   -0.8694 H   0  0  0  0  0  0  0  0  0  0  0  0
    2.6970   -2.3855   -1.8065 H   0  0  0  0  0  0  0  0  0  0  0  0
  1 17  1  0  0  0  0
  1 18  1  0  0  0  0
  2  3  1  0  0  0  0
  2  1  1  0  0  0  0
  3 20  1  0  0  0  0
  4 21  1  0  0  0  0
  4  3  2  0  0  0  0
  5  4  1  0  0  0  0
  6  5  2  0  0  0  0
  6  8  1  0  0  0  0
  7  6  1  0  0  0  0
  8  2  2  0  0  0  0
  9  8  1  0  0  0  0
  9 10  1  0  0  0  0
 10 11  1  0  0  0  0
 11 23  1  0  0  0  0
 12 10  2  0  0  0  0
 12 24  1  0  0  0  0
 13 12  1  0  0  0  0
 14 15  1  0  0  0  0
 14 13  2  0  0  0  0
 15  9  2  0  0  0  0
 16 15  1  0  0  0  0
 19  1  1  0  0  0  0
 22  5  1  0  0  0  0
 25 13  1  0  0  0  0
 26 14  1  0  0  0  0
M  END
$$$$
