 xtb: 6.6.1 (8d0f1dd)
          07232612553D

 26 27  0     0  0            999 V2000
    0.6350    1.9013   -1.1140 C   0  0  0  0  0  0  0  0  0  0  0  0
    1.3899    0.7836   -0.4643 C   0  0  0  0  0  0  0  0  0  0  0  0
    2.7771    0.7819   -0.4142 C   0  0  0  0  0  0  0  0  0  0  0  0
    3.4728   -0.2580    0.1784 C   0  0  0  0  0  0  0  0  0  0  0  0
    2.7916   -1.3221    0.7408 C   0  0  0  0  0  0  0  0  0  0  0  0
    1.4104   -1.3174    0.6926 C   0  0  0  0  0  0  0  0  0  0  0  0
    0.7349   -2.3457    1.2514 F   0  0  0  0  0  0  0  0  0  0  0  0
    0.6902   -0.2869    0.1010 C   0  0  0  0  0  0  0  0  0  0  0  0
   -0.7936   -0.3366    0.0651 C   0  0  0  0  0  0  0  0  0  0  0  0
   -1.5574    0.1530    1.1284 C   0  0  0  0  0  0  0  0  0  0  0  0
   -0.9764    0.6995    2.2248 O   0  0  0  0  0  0  0  0  0  0  0  0
   -2.9465    0.1032    1.0705 C   0  0  0  0  0  0  0  0  0  0  0  0
   -3.5788   -0.4379   -0.0311 C   0  0  0  0  0  0  0  0  0  0  0  0
   -2.8421   -0.9340   -1.0939 C   0  0  0  0  0  0  0  0  0  0  0  0
   -1.4648   -0.8718   -1.0256 C   0  0  0  0  0  0  0  0  0  0  0  0
   -0.7358   -1.3384   -2.0637 F   0  0  0  0  0  0  0  0  0  0  0  0
    0.0777    1.5274   -1.9721 H   0  0  0  0  0  0  0  0  0  0  0  0
    1.3137    2.6790   -1.4531 H   0  0  0  0  0  0  0  0  0  0  0  0
   -0.0835    2.3378   -0.4206 H   0  0  0  0  0  0  0  0  0  0  0  0
    3.3200    1.6067   -0.8509 H   0  0  0  0  0  0  0  0  0  0  0  0
    4.5514   -0.2408    0.2015 H   0  0  0  0  0  0  0  0  0  0  0  0
    3.3061   -2.1470    1.2063 H   0  0  0  0  0  0  0  0  0  0  0  0
   -0.0151    0.6107    2.1644 H   0  0  0  0  0  0  0  0  0  0  0  0
   -3.5066    0.4924    1.9049 H   0  0  0  0  0  0  0  0  0  0  0  0
   -4.6562   -0.4761   -0.0646 H   0  0  0  0  0  0  0  0  0  0  0  0
   -3.3143   -1.3637   -1.9621 H   0  0  0  0  0  0  0  0  0  0  0  0
  1  2  1  0  0  0  0
  2  3  4  0  0  0  0
  3  4  4  0  0  0  0
  4  5  4  0  0  0  0
  5  6  4  0  0  0  0
  6  7  1  0  0  0  0
  2  8  4  0  0  0  0
  6  8  4  0  0  0  0
  8  9  1  0  0  0  0
  9 10  4  0  0  0  0
 10 11  1  0  0  0  0
 10 12  4  0  0  0  0
 12 13  4  0  0  0  0
 13 14  4  0  0  0  0
  9 15  4  0  0  0  0
 14 15  4  0  0  0  0
 15 16  1  0  0  0  0
  1 17  1  0  0  0  0
  1 18  1  0  0  0  0
  1 19  1  0  0  0  0
  3 20  1  0  0  0  0
  4 21  1  0  0  0  0
  5 22  1  0  0  0  0
 11 23  1  0  0  0  0
 12 24  1  0  0  0  0
 13 25  1  0  0  0  0
 14 26  1  0  0  0  0
M  END
