 xtb: 6.6.1 (8d0f1dd)
          07232612553D

 26 27  0     0  0            999 V2000
    0.9707    1.9527   -0.8175 C   0  0  0  0  0  0  0  0  0  0  0  0
    1.5521    0.6727   -0.3021 C   0  0  0  0  0  0  0  0  0  0  0  0
    2.9233    0.5034   -0.1711 C   0  0  0  0  0  0  0  0  0  0  0  0
    3.4574   -0.6820    0.3031 C   0  0  0  0  0  0  0  0  0  0  0  0
    2.6251   -1.7268    0.6608 C   0  0  0  0  0  0  0  0  0  0  0  0
    1.2606   -1.5544    0.5305 C   0  0  0  0  0  0  0  0  0  0  0  0
    0.4397   -2.5698    0.8809 F   0  0  0  0  0  0  0  0  0  0  0  0
    0.7037   -0.3764    0.0539 C   0  0  0  0  0  0  0  0  0  0  0  0
   -0.7682   -0.2566   -0.0669 C   0  0  0  0  0  0  0  0  0  0  0  0
   -1.5357    0.2069    1.0061 C   0  0  0  0  0  0  0  0  0  0  0  0
   -0.8805    0.5776    2.1359 O   0  0  0  0  0  0  0  0  0  0  0  0
   -2.9180    0.2868    0.8903 C   0  0  0  0  0  0  0  0  0  0  0  0
   -3.5463   -0.0904   -0.2829 C   0  0  0  0  0  0  0  0  0  0  0  0
   -2.8067   -0.5475   -1.3577 C   0  0  0  0  0  0  0  0  0  0  0  0
   -1.4321   -0.6226   -1.2274 C   0  0  0  0  0  0  0  0  0  0  0  0
   -0.7038   -1.0610   -2.2756 F   0  0  0  0  0  0  0  0  0  0  0  0
    1.7525    2.6811   -1.0139 H   0  0  0  0  0  0  0  0  0  0  0  0
    0.2748    2.3703   -0.0915 H   0  0  0  0  0  0  0  0  0  0  0  0
    0.4205    1.7738   -1.7405 H   0  0  0  0  0  0  0  0  0  0  0  0
    3.5826    1.3133   -0.4464 H   0  0  0  0  0  0  0  0  0  0  0  0
    4.5270   -0.7937    0.3955 H   0  0  0  0  0  0  0  0  0  0  0  0
    3.0123   -2.6614    1.0337 H   0  0  0  0  0  0  0  0  0  0  0  0
   -1.5159    0.8346    2.8148 H   0  0  0  0  0  0  0  0  0  0  0  0
   -3.5016    0.6435    1.7281 H   0  0  0  0  0  0  0  0  0  0  0  0
   -4.6205   -0.0265   -0.3584 H   0  0  0  0  0  0  0  0  0  0  0  0
   -3.2731   -0.8476   -2.2816 H   0  0  0  0  0  0  0  0  0  0  0  0
  1  2  1  0  0  0  0
  2  3  4  0  0  0  0
  3  4  4  0  0  0  0
  4  5  4  0  0  0  0
  5  6  4  0  0  0  0
  6  7  1  0  0  0  0
  2  8  4  0  0  0  0
  6  8  4  0  0  0  0
  8  9  1  0  0  0  0
  9 10  4  0  0  0  0
 10 11  1  0  0  0  0
 10 12  4  0  0  0  0
 12 13  4  0  0  0  0
 13 14  4  0  0  0  0
  9 15  4  0  0  0  0
 14 15  4  0  0  0  0
 15 16  1  0  0  0  0
  1 17  1  0  0  0  0
  1 18  1  0  0  0  0
  1 19  1  0  0  0  0
  3 20  1  0  0  0  0
  4 21  1  0  0  0  0
  5 22  1  0  0  0  0
 11 23  1  0  0  0  0
 12 24  1  0  0  0  0
 13 25  1  0  0  0  0
 14 26  1  0  0  0  0
M  END
