 xtb: 6.6.1 (8d0f1dd)
          08282510023D

 26 27  0     0  0            999 V2000
   -1.2157   -1.0147    1.8135 C   0  0  0  0  0  0  0  0  0  0  0  0
   -1.6259   -0.3742    0.5234 C   0  0  0  0  0  0  0  0  0  0  0  0
   -2.9696   -0.2143    0.2103 C   0  0  0  0  0  0  0  0  0  0  0  0
   -3.3672    0.3781   -0.9744 C   0  0  0  0  0  0  0  0  0  0  0  0
   -2.4211    0.8290   -1.8774 C   0  0  0  0  0  0  0  0  0  0  0  0
   -1.0862    0.6695   -1.5645 C   0  0  0  0  0  0  0  0  0  0  0  0
   -0.1587    1.0945   -2.4513 F   0  0  0  0  0  0  0  0  0  0  0  0
   -0.6625    0.0716   -0.3835 C   0  0  0  0  0  0  0  0  0  0  0  0
    0.7873   -0.0615   -0.1237 C   0  0  0  0  0  0  0  0  0  0  0  0
    1.5752    1.0802    0.0682 C   0  0  0  0  0  0  0  0  0  0  0  0
    0.9506    2.2830    0.0719 O   0  0  0  0  0  0  0  0  0  0  0  0
    2.9443    0.9565    0.2715 C   0  0  0  0  0  0  0  0  0  0  0  0
    3.5423   -0.2904    0.2853 C   0  0  0  0  0  0  0  0  0  0  0  0
    2.7841   -1.4316    0.0998 C   0  0  0  0  0  0  0  0  0  0  0  0
    1.4235   -1.2939   -0.1032 C   0  0  0  0  0  0  0  0  0  0  0  0
    0.6860   -2.4082   -0.2997 F   0  0  0  0  0  0  0  0  0  0  0  0
   -2.0350   -0.9967    2.5275 H   0  0  0  0  0  0  0  0  0  0  0  0
   -0.9369   -2.0540    1.6412 H   0  0  0  0  0  0  0  0  0  0  0  0
   -0.3565   -0.5037    2.2441 H   0  0  0  0  0  0  0  0  0  0  0  0
   -3.7158   -0.5589    0.9110 H   0  0  0  0  0  0  0  0  0  0  0  0
   -4.4173    0.4923   -1.1966 H   0  0  0  0  0  0  0  0  0  0  0  0
   -2.6994    1.2952   -2.8090 H   0  0  0  0  0  0  0  0  0  0  0  0
    1.5994    2.9917    0.1572 H   0  0  0  0  0  0  0  0  0  0  0  0
    3.5416    1.8465    0.4161 H   0  0  0  0  0  0  0  0  0  0  0  0
    4.6068   -0.3719    0.4407 H   0  0  0  0  0  0  0  0  0  0  0  0
    3.2266   -2.4141    0.1018 H   0  0  0  0  0  0  0  0  0  0  0  0
  1  2  1  0  0  0  0
  2  3  4  0  0  0  0
  3  4  4  0  0  0  0
  4  5  4  0  0  0  0
  5  6  4  0  0  0  0
  6  7  1  0  0  0  0
  2  8  4  0  0  0  0
  6  8  4  0  0  0  0
  8  9  1  0  0  0  0
  9 10  4  0  0  0  0
 10 11  1  0  0  0  0
 10 12  4  0  0  0  0
 12 13  4  0  0  0  0
 13 14  4  0  0  0  0
  9 15  4  0  0  0  0
 14 15  4  0  0  0  0
 15 16  1  0  0  0  0
  1 17  1  0  0  0  0
  1 18  1  0  0  0  0
  1 19  1  0  0  0  0
  3 20  1  0  0  0  0
  4 21  1  0  0  0  0
  5 22  1  0  0  0  0
 11 23  1  0  0  0  0
 12 24  1  0  0  0  0
 13 25  1  0  0  0  0
 14 26  1  0  0  0  0
M  END
