energy: -46.467129716128 gnorm: 0.000453167071 xtb: 6.6.1 (8d0f1dd)
 OpenBabel07232612553D

 26 27  0  0  0  0  0  0  0  0999 V2000
   -1.1921   -1.5184   -1.4323 C   0  0  0  0  0  0  0  0  0  0  0  0
   -1.6141   -0.3797   -0.5561 C   0  0  0  0  0  0  0  0  0  0  0  0
   -2.9577   -0.0666   -0.3971 C   0  0  0  0  0  0  0  0  0  0  0  0
   -3.3619    0.9791    0.4130 C   0  0  0  0  0  0  0  0  0  0  0  0
   -2.4231    1.7381    1.0884 C   0  0  0  0  0  0  0  0  0  0  0  0
   -1.0881    1.4247    0.9298 C   0  0  0  0  0  0  0  0  0  0  0  0
   -0.1661    2.1714    1.5775 F   0  0  0  0  0  0  0  0  0  0  0  0
   -0.6580    0.3834    0.1164 C   0  0  0  0  0  0  0  0  0  0  0  0
    0.7916    0.1115    0.0020 C   0  0  0  0  0  0  0  0  0  0  0  0
    1.5052   -0.3687    1.1069 C   0  0  0  0  0  0  0  0  0  0  0  0
    0.8084   -0.6329    2.2393 O   0  0  0  0  0  0  0  0  0  0  0  0
    2.8749   -0.5833    1.0127 C   0  0  0  0  0  0  0  0  0  0  0  0
    3.5466   -0.3231   -0.1680 C   0  0  0  0  0  0  0  0  0  0  0  0
    2.8621    0.1501   -1.2722 C   0  0  0  0  0  0  0  0  0  0  0  0
    1.4999    0.3594   -1.1641 C   0  0  0  0  0  0  0  0  0  0  0  0
    0.8334    0.8339   -2.2390 F   0  0  0  0  0  0  0  0  0  0  0  0
   -0.4109   -2.1055   -0.9522 H   0  0  0  0  0  0  0  0  0  0  0  0
   -2.0367   -2.1653   -1.6546 H   0  0  0  0  0  0  0  0  0  0  0  0
   -0.7958   -1.1390   -2.3737 H   0  0  0  0  0  0  0  0  0  0  0  0
   -3.6990   -0.6559   -0.9165 H   0  0  0  0  0  0  0  0  0  0  0  0
   -4.4118    1.2044    0.5220 H   0  0  0  0  0  0  0  0  0  0  0  0
   -2.7068    2.5588    1.7275 H   0  0  0  0  0  0  0  0  0  0  0  0
    1.4116   -0.8983    2.9440 H   0  0  0  0  0  0  0  0  0  0  0  0
    3.4144   -0.9529    1.8741 H   0  0  0  0  0  0  0  0  0  0  0  0
    4.6109   -0.4901   -0.2262 H   0  0  0  0  0  0  0  0  0  0  0  0
    3.3629    0.3650   -2.2019 H   0  0  0  0  0  0  0  0  0  0  0  0
  1 17  1  0  0  0  0
  1  2  1  0  0  0  0
  2  3  2  0  0  0  0
  2  8  1  0  0  0  0
  3  4  1  0  0  0  0
  4 21  1  0  0  0  0
  4  5  2  0  0  0  0
  5 22  1  0  0  0  0
  6  5  1  0  0  0  0
  6  7  1  0  0  0  0
  8  6  2  0  0  0  0
  9  8  1  0  0  0  0
  9 10  1  0  0  0  0
 10 11  1  0  0  0  0
 11 23  1  0  0  0  0
 12 10  2  0  0  0  0
 12 24  1  0  0  0  0
 13 12  1  0  0  0  0
 14 15  1  0  0  0  0
 14 13  2  0  0  0  0
 15  9  2  0  0  0  0
 16 15  1  0  0  0  0
 18  1  1  0  0  0  0
 19  1  1  0  0  0  0
 20  3  1  0  0  0  0
 25 13  1  0  0  0  0
 26 14  1  0  0  0  0
M  END
$$$$
