-46.46809542
 OpenBabel07232612573D

 26 27  0  0  0  0  0  0  0  0999 V2000
   -0.7360    2.0980   -1.4766 C   0  0  0  0  0  0  0  0  0  0  0  0
   -1.4661    1.0302   -0.7242 C   0  0  0  0  0  0  0  0  0  0  0  0
   -2.8542    1.0170   -0.6814 C   0  0  0  0  0  0  0  0  0  0  0  0
   -3.5461    0.0384    0.0098 C   0  0  0  0  0  0  0  0  0  0  0  0
   -2.8583   -0.9616    0.6733 C   0  0  0  0  0  0  0  0  0  0  0  0
   -1.4780   -0.9474    0.6295 C   0  0  0  0  0  0  0  0  0  0  0  0
   -0.7990   -1.9263    1.2735 F   0  0  0  0  0  0  0  0  0  0  0  0
   -0.7576    0.0296   -0.0511 C   0  0  0  0  0  0  0  0  0  0  0  0
    0.7248   -0.0013   -0.0398 C   0  0  0  0  0  0  0  0  0  0  0  0
    1.4383   -1.0052   -0.7048 C   0  0  0  0  0  0  0  0  0  0  0  0
    0.8173   -1.9760   -1.4143 O   0  0  0  0  0  0  0  0  0  0  0  0
    2.8302   -1.0070   -0.6755 C   0  0  0  0  0  0  0  0  0  0  0  0
    3.5173   -0.0312    0.0174 C   0  0  0  0  0  0  0  0  0  0  0  0
    2.8324    0.9663    0.6916 C   0  0  0  0  0  0  0  0  0  0  0  0
    1.4533    0.9615    0.6484 C   0  0  0  0  0  0  0  0  0  0  0  0
    0.7797    1.9311    1.3076 F   0  0  0  0  0  0  0  0  0  0  0  0
   -1.3967    2.5851   -2.1891 H   0  0  0  0  0  0  0  0  0  0  0  0
   -0.3669    2.8535   -0.7835 H   0  0  0  0  0  0  0  0  0  0  0  0
    0.1211    1.6860   -2.0069 H   0  0  0  0  0  0  0  0  0  0  0  0
   -3.4010    1.7908   -1.1994 H   0  0  0  0  0  0  0  0  0  0  0  0
   -4.6247    0.0521    0.0326 H   0  0  0  0  0  0  0  0  0  0  0  0
   -3.3663   -1.7384    1.2217 H   0  0  0  0  0  0  0  0  0  0  0  0
   -0.1400   -1.9166   -1.2951 H   0  0  0  0  0  0  0  0  0  0  0  0
    3.3481   -1.7910   -1.2032 H   0  0  0  0  0  0  0  0  0  0  0  0
    4.5956   -0.0467    0.0370 H   0  0  0  0  0  0  0  0  0  0  0  0
    3.3458    1.7348    1.2458 H   0  0  0  0  0  0  0  0  0  0  0  0
  1 18  1  0  0  0  0
  1  2  1  0  0  0  0
  2  3  2  0  0  0  0
  2  8  1  0  0  0  0
  3  4  1  0  0  0  0
  4 21  1  0  0  0  0
  4  5  2  0  0  0  0
  5 22  1  0  0  0  0
  6  5  1  0  0  0  0
  6  7  1  0  0  0  0
  8  9  1  0  0  0  0
  8  6  2  0  0  0  0
  9 15  1  0  0  0  0
 10 12  1  0  0  0  0
 10  9  2  0  0  0  0
 11 23  1  0  0  0  0
 11 10  1  0  0  0  0
 12 13  2  0  0  0  0
 13 25  1  0  0  0  0
 13 14  1  0  0  0  0
 14 26  1  0  0  0  0
 15 14  2  0  0  0  0
 15 16  1  0  0  0  0
 17  1  1  0  0  0  0
 19  1  1  0  0  0  0
 20  3  1  0  0  0  0
 24 12  1  0  0  0  0
M  END
$$$$
