/path/to/1.xyz
 OpenBabel08282510013D

 26 27  0  0  0  0  0  0  0  0999 V2000
    1.5879   -0.4876   -1.3905 C   0  0  0  0  0  0  0  0  0  0  0  0
    1.6287    0.0976   -0.0232 C   0  0  0  0  0  0  0  0  0  0  0  0
    2.8088    0.5444    0.5407 C   0  0  0  0  0  0  0  0  0  0  0  0
    2.8343    1.0892    1.8188 C   0  0  0  0  0  0  0  0  0  0  0  0
    1.6758    1.1934    2.5492 C   0  0  0  0  0  0  0  0  0  0  0  0
    0.5059    0.7461    1.9797 C   0  0  0  0  0  0  0  0  0  0  0  0
   -0.6622    0.8276    2.6603 F   0  0  0  0  0  0  0  0  0  0  0  0
    0.4665    0.2040    0.7137 C   0  0  0  0  0  0  0  0  0  0  0  0
   -0.7916   -0.2508    0.1633 C   0  0  0  0  0  0  0  0  0  0  0  0
   -1.5660    0.6317   -0.5531 C   0  0  0  0  0  0  0  0  0  0  0  0
   -1.1284    1.9477   -0.7377 O   0  0  0  0  0  0  0  0  0  0  0  0
   -2.7633    0.1917   -1.0746 C   0  0  0  0  0  0  0  0  0  0  0  0
   -3.1793   -1.1066   -0.8838 C   0  0  0  0  0  0  0  0  0  0  0  0
   -2.4154   -2.0051   -0.1681 C   0  0  0  0  0  0  0  0  0  0  0  0
   -1.1992   -1.5500    0.3590 C   0  0  0  0  0  0  0  0  0  0  0  0
   -0.4195   -2.3896    1.0643 F   0  0  0  0  0  0  0  0  0  0  0  0
    0.6329   -0.2549   -1.8937 H   0  0  0  0  0  0  0  0  0  0  0  0
    1.7093   -1.5781   -1.3960 H   0  0  0  0  0  0  0  0  0  0  0  0
    2.3898   -0.0559   -2.0122 H   0  0  0  0  0  0  0  0  0  0  0  0
    3.7166    0.4491   -0.0639 H   0  0  0  0  0  0  0  0  0  0  0  0
    3.7545    1.4306    2.2422 H   0  0  0  0  0  0  0  0  0  0  0  0
    1.6636    1.6127    3.5461 H   0  0  0  0  0  0  0  0  0  0  0  0
   -0.9528    2.3344   -1.6526 H   0  0  0  0  0  0  0  0  0  0  0  0
   -3.3993    0.8480   -1.6407 H   0  0  0  0  0  0  0  0  0  0  0  0
   -4.1379   -1.4514   -1.3038 H   0  0  0  0  0  0  0  0  0  0  0  0
   -2.7597   -3.0183   -0.0300 H   0  0  0  0  0  0  0  0  0  0  0  0
  1  2  1  0  0  0  0
  2  3  2  0  0  0  0
  2  8  1  0  0  0  0
  3  4  1  0  0  0  0
  4 21  1  0  0  0  0
  4  5  2  0  0  0  0
  5 22  1  0  0  0  0
  6  5  1  0  0  0  0
  6  7  1  0  0  0  0
  8  6  2  0  0  0  0
  9 15  1  0  0  0  0
  9  8  1  0  0  0  0
 10  9  2  0  0  0  0
 11 10  1  0  0  0  0
 12 13  2  0  0  0  0
 12 10  1  0  0  0  0
 13 14  1  0  0  0  0
 14 26  1  0  0  0  0
 14 15  2  0  0  0  0
 15 16  1  0  0  0  0
 17  1  1  0  0  0  0
 18  1  1  0  0  0  0
 19  1  1  0  0  0  0
 20  3  1  0  0  0  0
 23 11  1  0  0  0  0
 24 12  1  0  0  0  0
 25 13  1  0  0  0  0
M  END
$$$$
