/path/to/11.xyz
 OpenBabel08282510013D

 26 27  0  0  0  0  0  0  0  0999 V2000
   -1.1956   -1.7309   -0.6687 C   0  0  0  0  0  0  0  0  0  0  0  0
   -1.6080   -0.4228   -0.0638 C   0  0  0  0  0  0  0  0  0  0  0  0
   -2.9249   -0.1702    0.2567 C   0  0  0  0  0  0  0  0  0  0  0  0
   -3.3154    1.0303    0.8138 C   0  0  0  0  0  0  0  0  0  0  0  0
   -2.3307    1.9715    1.0381 C   0  0  0  0  0  0  0  0  0  0  0  0
   -1.0120    1.7171    0.7167 C   0  0  0  0  0  0  0  0  0  0  0  0
   -0.0436    2.6362    0.9347 F   0  0  0  0  0  0  0  0  0  0  0  0
   -0.6239    0.5176    0.1604 C   0  0  0  0  0  0  0  0  0  0  0  0
    0.7691    0.2203   -0.1909 C   0  0  0  0  0  0  0  0  0  0  0  0
    1.6182   -0.3678    0.7235 C   0  0  0  0  0  0  0  0  0  0  0  0
    1.1093   -0.6666    1.9825 O   0  0  0  0  0  0  0  0  0  0  0  0
    2.9423   -0.6633    0.4252 C   0  0  0  0  0  0  0  0  0  0  0  0
    3.4531   -0.3691   -0.8224 C   0  0  0  0  0  0  0  0  0  0  0  0
    2.6003    0.2193   -1.7347 C   0  0  0  0  0  0  0  0  0  0  0  0
    1.2836    0.5128   -1.4371 C   0  0  0  0  0  0  0  0  0  0  0  0
    0.4715    1.0843   -2.3368 F   0  0  0  0  0  0  0  0  0  0  0  0
   -0.2540   -1.6437   -1.2251 H   0  0  0  0  0  0  0  0  0  0  0  0
   -1.0233   -2.4216    0.1863 H   0  0  0  0  0  0  0  0  0  0  0  0
   -2.0065   -2.1558   -1.2978 H   0  0  0  0  0  0  0  0  0  0  0  0
   -3.6768   -0.9444    0.0626 H   0  0  0  0  0  0  0  0  0  0  0  0
   -4.3538    1.2126    1.0595 H   0  0  0  0  0  0  0  0  0  0  0  0
   -2.6220    2.9158    1.4738 H   0  0  0  0  0  0  0  0  0  0  0  0
    1.6302   -1.2234    2.6280 H   0  0  0  0  0  0  0  0  0  0  0  0
    3.6109   -1.1277    1.1490 H   0  0  0  0  0  0  0  0  0  0  0  0
    4.4772   -0.5773   -1.1097 H   0  0  0  0  0  0  0  0  0  0  0  0
    3.0250    0.4466   -2.7241 H   0  0  0  0  0  0  0  0  0  0  0  0
  1  2  1  0  0  0  0
  1 18  1  0  0  0  0
  2  8  2  0  0  0  0
  2  3  1  0  0  0  0
  3  4  2  0  0  0  0
  4  5  1  0  0  0  0
  4 21  1  0  0  0  0
  5 22  1  0  0  0  0
  6  7  1  0  0  0  0
  6  5  2  0  0  0  0
  8  6  1  0  0  0  0
  9  8  1  0  0  0  0
  9 10  1  0  0  0  0
 10 11  1  0  0  0  0
 11 23  1  0  0  0  0
 12 10  2  0  0  0  0
 12 24  1  0  0  0  0
 13 12  1  0  0  0  0
 14 15  1  0  0  0  0
 14 13  2  0  0  0  0
 15  9  2  0  0  0  0
 16 15  1  0  0  0  0
 17  1  1  0  0  0  0
 19  1  1  0  0  0  0
 20  3  1  0  0  0  0
 25 13  1  0  0  0  0
 26 14  1  0  0  0  0
M  END
$$$$
