/path/to/15.xyz
 OpenBabel08282510013D

 26 27  0  0  0  0  0  0  0  0999 V2000
    0.9144    1.9464   -0.7694 C   0  0  0  0  0  0  0  0  0  0  0  0
    1.4735    0.6658   -0.2738 C   0  0  0  0  0  0  0  0  0  0  0  0
    2.8494    0.5126   -0.1168 C   0  0  0  0  0  0  0  0  0  0  0  0
    3.3978   -0.6673    0.3424 C   0  0  0  0  0  0  0  0  0  0  0  0
    2.5670   -1.7377    0.6597 C   0  0  0  0  0  0  0  0  0  0  0  0
    1.2066   -1.5996    0.5092 C   0  0  0  0  0  0  0  0  0  0  0  0
    0.4169   -2.6552    0.8243 F   0  0  0  0  0  0  0  0  0  0  0  0
    0.6896   -0.4086    0.0485 C   0  0  0  0  0  0  0  0  0  0  0  0
   -0.7748   -0.3096   -0.0959 C   0  0  0  0  0  0  0  0  0  0  0  0
   -1.4854    0.1419    0.9975 C   0  0  0  0  0  0  0  0  0  0  0  0
   -0.8504    0.4914    2.1917 O   0  0  0  0  0  0  0  0  0  0  0  0
   -2.8533    0.2286    0.8458 C   0  0  0  0  0  0  0  0  0  0  0  0
   -3.5046   -0.1104   -0.3231 C   0  0  0  0  0  0  0  0  0  0  0  0
   -2.7863   -0.5617   -1.4134 C   0  0  0  0  0  0  0  0  0  0  0  0
   -1.4159   -0.6524   -1.2726 C   0  0  0  0  0  0  0  0  0  0  0  0
   -0.6925   -1.0898   -2.3215 F   0  0  0  0  0  0  0  0  0  0  0  0
    1.7554    2.5514   -1.2173 H   0  0  0  0  0  0  0  0  0  0  0  0
    0.4973    2.5708    0.0312 H   0  0  0  0  0  0  0  0  0  0  0  0
    0.1263    1.7970   -1.5407 H   0  0  0  0  0  0  0  0  0  0  0  0
    3.4783    1.3744   -0.3752 H   0  0  0  0  0  0  0  0  0  0  0  0
    4.4809   -0.7360    0.4476 H   0  0  0  0  0  0  0  0  0  0  0  0
    2.9749   -2.6676    1.0197 H   0  0  0  0  0  0  0  0  0  0  0  0
   -1.2259    1.1905    2.8213 H   0  0  0  0  0  0  0  0  0  0  0  0
   -3.4051    0.5901    1.7264 H   0  0  0  0  0  0  0  0  0  0  0  0
   -4.5960   -0.0235   -0.3930 H   0  0  0  0  0  0  0  0  0  0  0  0
   -3.2381   -0.8414   -2.3527 H   0  0  0  0  0  0  0  0  0  0  0  0
  1  2  1  0  0  0  0
  1 18  1  0  0  0  0
  2  3  2  0  0  0  0
  2  8  1  0  0  0  0
  3  4  1  0  0  0  0
  4 21  1  0  0  0  0
  4  5  2  0  0  0  0
  5 22  1  0  0  0  0
  6  5  1  0  0  0  0
  6  7  1  0  0  0  0
  8  6  2  0  0  0  0
  9  8  1  0  0  0  0
  9 10  1  0  0  0  0
 10 11  1  0  0  0  0
 11 23  1  0  0  0  0
 12 10  2  0  0  0  0
 12 24  1  0  0  0  0
 13 12  1  0  0  0  0
 14 15  1  0  0  0  0
 14 13  2  0  0  0  0
 15  9  2  0  0  0  0
 16 15  1  0  0  0  0
 17  1  1  0  0  0  0
 19  1  1  0  0  0  0
 20  3  1  0  0  0  0
 25 13  1  0  0  0  0
 26 14  1  0  0  0  0
M  END
$$$$
