/path/to/18.xyz
 OpenBabel08282510013D

 26 27  0  0  0  0  0  0  0  0999 V2000
    0.8910    1.9840    0.4103 C   0  0  0  0  0  0  0  0  0  0  0  0
    1.4932    0.6719    0.1299 C   0  0  0  0  0  0  0  0  0  0  0  0
    2.8494    0.4807    0.0165 C   0  0  0  0  0  0  0  0  0  0  0  0
    3.4253   -0.7422   -0.2457 C   0  0  0  0  0  0  0  0  0  0  0  0
    2.6047   -1.8390   -0.4045 C   0  0  0  0  0  0  0  0  0  0  0  0
    1.2399   -1.6727   -0.2954 C   0  0  0  0  0  0  0  0  0  0  0  0
    0.4576   -2.7740   -0.4572 F   0  0  0  0  0  0  0  0  0  0  0  0
    0.6669   -0.4234   -0.0283 C   0  0  0  0  0  0  0  0  0  0  0  0
   -0.7780   -0.2867    0.0799 C   0  0  0  0  0  0  0  0  0  0  0  0
   -1.5575   -0.0057   -1.0030 C   0  0  0  0  0  0  0  0  0  0  0  0
   -1.0114    0.1691   -2.2900 O   0  0  0  0  0  0  0  0  0  0  0  0
   -2.9236    0.1170   -0.8649 C   0  0  0  0  0  0  0  0  0  0  0  0
   -3.5548   -0.0399    0.3743 C   0  0  0  0  0  0  0  0  0  0  0  0
   -2.7624   -0.3239    1.4658 C   0  0  0  0  0  0  0  0  0  0  0  0
   -1.3768   -0.4447    1.3057 C   0  0  0  0  0  0  0  0  0  0  0  0
   -0.6718   -0.7246    2.4271 F   0  0  0  0  0  0  0  0  0  0  0  0
    0.2627    2.3624   -0.4222 H   0  0  0  0  0  0  0  0  0  0  0  0
    0.2434    1.9933    1.3107 H   0  0  0  0  0  0  0  0  0  0  0  0
    1.6872    2.7507    0.5733 H   0  0  0  0  0  0  0  0  0  0  0  0
    3.4909    1.3394    0.1409 H   0  0  0  0  0  0  0  0  0  0  0  0
    4.4974   -0.8578   -0.3286 H   0  0  0  0  0  0  0  0  0  0  0  0
    3.0004   -2.8242   -0.6119 H   0  0  0  0  0  0  0  0  0  0  0  0
   -0.7079    1.1356   -2.4733 H   0  0  0  0  0  0  0  0  0  0  0  0
   -3.5808    0.3410   -1.7067 H   0  0  0  0  0  0  0  0  0  0  0  0
   -4.6381    0.0594    0.4727 H   0  0  0  0  0  0  0  0  0  0  0  0
   -3.2471   -0.4457    2.4248 H   0  0  0  0  0  0  0  0  0  0  0  0
  1 19  1  0  0  0  0
  1 18  1  0  0  0  0
  2  1  1  0  0  0  0
  3  2  1  0  0  0  0
  3 20  1  0  0  0  0
  4  3  2  0  0  0  0
  5  6  2  0  0  0  0
  5  4  1  0  0  0  0
  6  8  1  0  0  0  0
  7  6  1  0  0  0  0
  8  9  1  0  0  0  0
  8  2  2  0  0  0  0
  9 15  1  0  0  0  0
 10 12  1  0  0  0  0
 10  9  2  0  0  0  0
 11 10  1  0  0  0  0
 12 13  2  0  0  0  0
 13 25  1  0  0  0  0
 13 14  1  0  0  0  0
 14 26  1  0  0  0  0
 15 14  2  0  0  0  0
 15 16  1  0  0  0  0
 17  1  1  0  0  0  0
 21  4  1  0  0  0  0
 22  5  1  0  0  0  0
 23 11  1  0  0  0  0
 24 12  1  0  0  0  0
M  END
$$$$
