/path/to/19.xyz
 OpenBabel08282510013D

 26 27  0  0  0  0  0  0  0  0999 V2000
    0.7061    2.0460    0.7132 C   0  0  0  0  0  0  0  0  0  0  0  0
    1.4123    0.9069    0.0770 C   0  0  0  0  0  0  0  0  0  0  0  0
    2.7797    0.9549   -0.0861 C   0  0  0  0  0  0  0  0  0  0  0  0
    3.4349   -0.0975   -0.6743 C   0  0  0  0  0  0  0  0  0  0  0  0
    2.7228   -1.1946   -1.0980 C   0  0  0  0  0  0  0  0  0  0  0  0
    1.3495   -1.2477   -0.9365 C   0  0  0  0  0  0  0  0  0  0  0  0
    0.6494   -2.3290   -1.3543 F   0  0  0  0  0  0  0  0  0  0  0  0
    0.6938   -0.1890   -0.3452 C   0  0  0  0  0  0  0  0  0  0  0  0
   -0.7503   -0.2777   -0.1910 C   0  0  0  0  0  0  0  0  0  0  0  0
   -1.3032   -0.8333    0.9645 C   0  0  0  0  0  0  0  0  0  0  0  0
   -0.4343   -1.2891    1.9419 O   0  0  0  0  0  0  0  0  0  0  0  0
   -2.6702   -0.9258    1.1283 C   0  0  0  0  0  0  0  0  0  0  0  0
   -3.5341   -0.4786    0.1689 C   0  0  0  0  0  0  0  0  0  0  0  0
   -3.0052    0.0719   -0.9764 C   0  0  0  0  0  0  0  0  0  0  0  0
   -1.6386    0.1697   -1.1513 C   0  0  0  0  0  0  0  0  0  0  0  0
   -1.1240    0.7132   -2.2821 F   0  0  0  0  0  0  0  0  0  0  0  0
    0.3586    2.7816   -0.0525 H   0  0  0  0  0  0  0  0  0  0  0  0
   -0.1660    1.7440    1.2999 H   0  0  0  0  0  0  0  0  0  0  0  0
    1.4300    2.5889    1.3516 H   0  0  0  0  0  0  0  0  0  0  0  0
    3.2979    1.8430    0.2647 H   0  0  0  0  0  0  0  0  0  0  0  0
    4.5187   -0.0130   -0.7815 H   0  0  0  0  0  0  0  0  0  0  0  0
    3.2607   -2.0269   -1.5658 H   0  0  0  0  0  0  0  0  0  0  0  0
   -0.6974   -1.3928    2.9062 H   0  0  0  0  0  0  0  0  0  0  0  0
   -3.0273   -1.3745    2.0634 H   0  0  0  0  0  0  0  0  0  0  0  0
   -4.5910   -0.5795    0.3573 H   0  0  0  0  0  0  0  0  0  0  0  0
   -3.6728    0.4290   -1.7418 H   0  0  0  0  0  0  0  0  0  0  0  0
  1 18  1  0  0  0  0
  1 19  1  0  0  0  0
  2  1  1  0  0  0  0
  3  2  1  0  0  0  0
  3 20  1  0  0  0  0
  4  3  2  0  0  0  0
  5  6  2  0  0  0  0
  5  4  1  0  0  0  0
  6  8  1  0  0  0  0
  7  6  1  0  0  0  0
  8  9  1  0  0  0  0
  8  2  2  0  0  0  0
  9 10  1  0  0  0  0
 10 12  2  0  0  0  0
 10 11  1  0  0  0  0
 11 23  1  0  0  0  0
 12 24  1  0  0  0  0
 13 25  1  0  0  0  0
 13 12  1  0  0  0  0
 14 13  2  0  0  0  0
 15 14  1  0  0  0  0
 15  9  2  0  0  0  0
 16 15  1  0  0  0  0
 17  1  1  0  0  0  0
 21  4  1  0  0  0  0
 22  5  1  0  0  0  0
 26 14  1  0  0  0  0
M  END
$$$$
