/path/to/4.xyz
 OpenBabel08282510013D

 26 27  0  0  0  0  0  0  0  0999 V2000
   -1.0311    1.8532    0.5008 C   0  0  0  0  0  0  0  0  0  0  0  0
   -1.5389    0.5272    0.1157 C   0  0  0  0  0  0  0  0  0  0  0  0
   -2.9008    0.3707   -0.0452 C   0  0  0  0  0  0  0  0  0  0  0  0
   -3.4185   -0.8539   -0.4052 C   0  0  0  0  0  0  0  0  0  0  0  0
   -2.5186   -1.8884   -0.5906 C   0  0  0  0  0  0  0  0  0  0  0  0
   -1.1494   -1.7411   -0.4314 C   0  0  0  0  0  0  0  0  0  0  0  0
   -0.2854   -2.7619   -0.6165 F   0  0  0  0  0  0  0  0  0  0  0  0
   -0.6480   -0.5062   -0.0702 C   0  0  0  0  0  0  0  0  0  0  0  0
    0.7659   -0.2236    0.1277 C   0  0  0  0  0  0  0  0  0  0  0  0
    1.5681    0.2097   -0.9176 C   0  0  0  0  0  0  0  0  0  0  0  0
    1.0325    0.3843   -2.1864 O   0  0  0  0  0  0  0  0  0  0  0  0
    2.9075    0.4732   -0.7123 C   0  0  0  0  0  0  0  0  0  0  0  0
    3.4803    0.3089    0.5499 C   0  0  0  0  0  0  0  0  0  0  0  0
    2.6944   -0.1213    1.5981 C   0  0  0  0  0  0  0  0  0  0  0  0
    1.3743   -0.3743    1.3675 C   0  0  0  0  0  0  0  0  0  0  0  0
    0.6042   -0.8020    2.4203 F   0  0  0  0  0  0  0  0  0  0  0  0
   -1.8433    2.5872    0.6816 H   0  0  0  0  0  0  0  0  0  0  0  0
   -0.3756    2.3109   -0.2837 H   0  0  0  0  0  0  0  0  0  0  0  0
   -0.4227    1.8339    1.4253 H   0  0  0  0  0  0  0  0  0  0  0  0
   -3.6004    1.1799    0.1002 H   0  0  0  0  0  0  0  0  0  0  0  0
   -4.4731   -1.0431   -0.5472 H   0  0  0  0  0  0  0  0  0  0  0  0
   -2.8970   -2.8438   -0.8692 H   0  0  0  0  0  0  0  0  0  0  0  0
    1.5192    0.0673   -3.0322 H   0  0  0  0  0  0  0  0  0  0  0  0
    3.5405    0.8119   -1.5233 H   0  0  0  0  0  0  0  0  0  0  0  0
    4.5241    0.5063    0.7437 H   0  0  0  0  0  0  0  0  0  0  0  0
    3.0918   -0.2651    2.5999 H   0  0  0  0  0  0  0  0  0  0  0  0
  1 17  1  0  0  0  0
  1 19  1  0  0  0  0
  2  1  1  0  0  0  0
  3 20  1  0  0  0  0
  3  2  1  0  0  0  0
  4  3  2  0  0  0  0
  5  6  2  0  0  0  0
  5  4  1  0  0  0  0
  6  8  1  0  0  0  0
  7  6  1  0  0  0  0
  8  2  2  0  0  0  0
  8  9  1  0  0  0  0
  9 15  1  0  0  0  0
 10 12  1  0  0  0  0
 10  9  2  0  0  0  0
 11 10  1  0  0  0  0
 12 13  2  0  0  0  0
 13 25  1  0  0  0  0
 13 14  1  0  0  0  0
 14 26  1  0  0  0  0
 15 14  2  0  0  0  0
 15 16  1  0  0  0  0
 18  1  1  0  0  0  0
 21  4  1  0  0  0  0
 22  5  1  0  0  0  0
 23 11  1  0  0  0  0
 24 12  1  0  0  0  0
M  END
$$$$
