/path/to/5.xyz
 OpenBabel08282510013D

 26 27  0  0  0  0  0  0  0  0999 V2000
   -1.1599   -1.8039   -0.4528 C   0  0  0  0  0  0  0  0  0  0  0  0
   -1.5630   -0.4791    0.0523 C   0  0  0  0  0  0  0  0  0  0  0  0
   -2.8838   -0.2762    0.3946 C   0  0  0  0  0  0  0  0  0  0  0  0
   -3.2615    0.9612    0.8666 C   0  0  0  0  0  0  0  0  0  0  0  0
   -2.3096    1.9677    0.9856 C   0  0  0  0  0  0  0  0  0  0  0  0
   -0.9804    1.7572    0.6392 C   0  0  0  0  0  0  0  0  0  0  0  0
   -0.0384    2.7211    0.7468 F   0  0  0  0  0  0  0  0  0  0  0  0
   -0.6067    0.5054    0.1634 C   0  0  0  0  0  0  0  0  0  0  0  0
    0.7619    0.1837   -0.2265 C   0  0  0  0  0  0  0  0  0  0  0  0
    1.6390   -0.3191    0.6972 C   0  0  0  0  0  0  0  0  0  0  0  0
    1.2336   -0.5255    2.0067 O   0  0  0  0  0  0  0  0  0  0  0  0
    2.9173   -0.6120    0.3030 C   0  0  0  0  0  0  0  0  0  0  0  0
    3.3637   -0.4267   -0.9727 C   0  0  0  0  0  0  0  0  0  0  0  0
    2.4614    0.0824   -1.8912 C   0  0  0  0  0  0  0  0  0  0  0  0
    1.1880    0.3832   -1.5343 C   0  0  0  0  0  0  0  0  0  0  0  0
    0.2797    0.8826   -2.4067 F   0  0  0  0  0  0  0  0  0  0  0  0
   -1.5637   -2.5905    0.2177 H   0  0  0  0  0  0  0  0  0  0  0  0
   -0.0512   -1.9153   -0.4803 H   0  0  0  0  0  0  0  0  0  0  0  0
   -1.5379   -1.9142   -1.4882 H   0  0  0  0  0  0  0  0  0  0  0  0
   -3.6056   -1.0706    0.2944 H   0  0  0  0  0  0  0  0  0  0  0  0
   -4.2642    1.2097    1.1564 H   0  0  0  0  0  0  0  0  0  0  0  0
   -2.5812    2.9457    1.3531 H   0  0  0  0  0  0  0  0  0  0  0  0
    1.8065   -0.2643    2.8170 H   0  0  0  0  0  0  0  0  0  0  0  0
    3.6450   -1.0168    1.0211 H   0  0  0  0  0  0  0  0  0  0  0  0
    4.3625   -0.6443   -1.3252 H   0  0  0  0  0  0  0  0  0  0  0  0
    2.7486    0.2586   -2.9374 H   0  0  0  0  0  0  0  0  0  0  0  0
  1  2  1  0  0  0  0
  1 17  1  0  0  0  0
  2  8  2  0  0  0  0
  2  3  1  0  0  0  0
  3  4  2  0  0  0  0
  4  5  1  0  0  0  0
  4 21  1  0  0  0  0
  5 22  1  0  0  0  0
  6  7  1  0  0  0  0
  6  5  2  0  0  0  0
  8  6  1  0  0  0  0
  9  8  1  0  0  0  0
  9 10  1  0  0  0  0
 10 11  1  0  0  0  0
 11 23  1  0  0  0  0
 12 10  2  0  0  0  0
 12 24  1  0  0  0  0
 13 12  1  0  0  0  0
 14 15  1  0  0  0  0
 14 13  2  0  0  0  0
 15  9  2  0  0  0  0
 16 15  1  0  0  0  0
 18  1  1  0  0  0  0
 19  1  1  0  0  0  0
 20  3  1  0  0  0  0
 25 13  1  0  0  0  0
 26 14  1  0  0  0  0
M  END
$$$$
