/path/to/6.xyz
 OpenBabel08282510013D

 26 27  0  0  0  0  0  0  0  0999 V2000
   -0.9290    2.0082   -0.3437 C   0  0  0  0  0  0  0  0  0  0  0  0
   -1.5300    0.6872   -0.1058 C   0  0  0  0  0  0  0  0  0  0  0  0
   -2.8990    0.5950   -0.0131 C   0  0  0  0  0  0  0  0  0  0  0  0
   -3.4290   -0.6502    0.2091 C   0  0  0  0  0  0  0  0  0  0  0  0
   -2.6170   -1.7730    0.3355 C   0  0  0  0  0  0  0  0  0  0  0  0
   -1.2417   -1.6496    0.2377 C   0  0  0  0  0  0  0  0  0  0  0  0
   -0.4547   -2.7594    0.3635 F   0  0  0  0  0  0  0  0  0  0  0  0
   -0.6965   -0.4063    0.0149 C   0  0  0  0  0  0  0  0  0  0  0  0
    0.7441   -0.2805   -0.0870 C   0  0  0  0  0  0  0  0  0  0  0  0
    1.5790   -0.0400    0.9841 C   0  0  0  0  0  0  0  0  0  0  0  0
    1.0333    0.0945    2.2526 O   0  0  0  0  0  0  0  0  0  0  0  0
    2.9540    0.0707    0.8228 C   0  0  0  0  0  0  0  0  0  0  0  0
    3.5177   -0.0596   -0.4286 C   0  0  0  0  0  0  0  0  0  0  0  0
    2.6998   -0.3004   -1.5134 C   0  0  0  0  0  0  0  0  0  0  0  0
    1.3165   -0.4095   -1.3356 C   0  0  0  0  0  0  0  0  0  0  0  0
    0.5961   -0.6467   -2.4603 F   0  0  0  0  0  0  0  0  0  0  0  0
   -0.1932    2.2603    0.4240 H   0  0  0  0  0  0  0  0  0  0  0  0
   -1.6828    2.8170   -0.3583 H   0  0  0  0  0  0  0  0  0  0  0  0
   -0.4754    1.9862   -1.3606 H   0  0  0  0  0  0  0  0  0  0  0  0
   -3.5425    1.4478   -0.1076 H   0  0  0  0  0  0  0  0  0  0  0  0
   -4.5125   -0.7499    0.2866 H   0  0  0  0  0  0  0  0  0  0  0  0
   -3.0445   -2.7429    0.5094 H   0  0  0  0  0  0  0  0  0  0  0  0
    1.4610    0.6089    3.0040 H   0  0  0  0  0  0  0  0  0  0  0  0
    3.5752    0.2611    1.6972 H   0  0  0  0  0  0  0  0  0  0  0  0
    4.6082    0.0304   -0.5416 H   0  0  0  0  0  0  0  0  0  0  0  0
    3.1630   -0.3992   -2.4861 H   0  0  0  0  0  0  0  0  0  0  0  0
  1  2  1  0  0  0  0
  1 17  1  0  0  0  0
  2  3  2  0  0  0  0
  2  8  1  0  0  0  0
  3  4  1  0  0  0  0
  4 21  1  0  0  0  0
  4  5  2  0  0  0  0
  5 22  1  0  0  0  0
  6  5  1  0  0  0  0
  6  7  1  0  0  0  0
  8  6  2  0  0  0  0
  9  8  1  0  0  0  0
  9 10  1  0  0  0  0
 10 11  1  0  0  0  0
 11 23  1  0  0  0  0
 12 10  2  0  0  0  0
 12 24  1  0  0  0  0
 13 12  1  0  0  0  0
 14 15  1  0  0  0  0
 14 13  2  0  0  0  0
 15  9  2  0  0  0  0
 16 15  1  0  0  0  0
 18  1  1  0  0  0  0
 19  1  1  0  0  0  0
 20  3  1  0  0  0  0
 25 13  1  0  0  0  0
 26 14  1  0  0  0  0
M  END
$$$$
