/path/to/7.xyz
 OpenBabel08282510013D

 26 27  0  0  0  0  0  0  0  0999 V2000
   -1.0623   -1.5815   -1.1553 C   0  0  0  0  0  0  0  0  0  0  0  0
   -1.5550   -0.3709   -0.4356 C   0  0  0  0  0  0  0  0  0  0  0  0
   -2.9077   -0.1206   -0.3658 C   0  0  0  0  0  0  0  0  0  0  0  0
   -3.3805    0.9931    0.2950 C   0  0  0  0  0  0  0  0  0  0  0  0
   -2.4326    1.8386    0.8792 C   0  0  0  0  0  0  0  0  0  0  0  0
   -1.0818    1.5851    0.8073 C   0  0  0  0  0  0  0  0  0  0  0  0
   -0.2216    2.4362    1.3895 F   0  0  0  0  0  0  0  0  0  0  0  0
   -0.6196    0.4740    0.1474 C   0  0  0  0  0  0  0  0  0  0  0  0
    0.8065    0.1506    0.0369 C   0  0  0  0  0  0  0  0  0  0  0  0
    1.4527   -0.6258    0.9746 C   0  0  0  0  0  0  0  0  0  0  0  0
    0.7539   -1.1341    2.0744 O   0  0  0  0  0  0  0  0  0  0  0  0
    2.7880   -0.8863    0.8050 C   0  0  0  0  0  0  0  0  0  0  0  0
    3.5217   -0.4068   -0.2647 C   0  0  0  0  0  0  0  0  0  0  0  0
    2.8569    0.3683   -1.1924 C   0  0  0  0  0  0  0  0  0  0  0  0
    1.5064    0.6465   -1.0438 C   0  0  0  0  0  0  0  0  0  0  0  0
    0.8787    1.4176   -1.9812 F   0  0  0  0  0  0  0  0  0  0  0  0
   -0.0332   -1.8192   -0.8727 H   0  0  0  0  0  0  0  0  0  0  0  0
   -1.7193   -2.4187   -0.8692 H   0  0  0  0  0  0  0  0  0  0  0  0
   -1.0839   -1.4273   -2.2618 H   0  0  0  0  0  0  0  0  0  0  0  0
   -3.6424   -0.7727   -0.8166 H   0  0  0  0  0  0  0  0  0  0  0  0
   -4.4343    1.2235    0.3714 H   0  0  0  0  0  0  0  0  0  0  0  0
   -2.8159    2.7064    1.3932 H   0  0  0  0  0  0  0  0  0  0  0  0
    1.1524   -0.9412    3.0059 H   0  0  0  0  0  0  0  0  0  0  0  0
    3.3385   -1.4963    1.5231 H   0  0  0  0  0  0  0  0  0  0  0  0
    4.5750   -0.6196   -0.3871 H   0  0  0  0  0  0  0  0  0  0  0  0
    3.3596    0.7808   -2.0570 H   0  0  0  0  0  0  0  0  0  0  0  0
  1 17  1  0  0  0  0
  1 18  1  0  0  0  0
  1  2  1  0  0  0  0
  2  3  2  0  0  0  0
  2  8  1  0  0  0  0
  3  4  1  0  0  0  0
  4 21  1  0  0  0  0
  4  5  2  0  0  0  0
  5 22  1  0  0  0  0
  6  5  1  0  0  0  0
  6  7  1  0  0  0  0
  8  6  2  0  0  0  0
  9  8  1  0  0  0  0
  9 10  1  0  0  0  0
 10 11  1  0  0  0  0
 11 23  1  0  0  0  0
 12 10  2  0  0  0  0
 12 24  1  0  0  0  0
 13 12  1  0  0  0  0
 14 15  1  0  0  0  0
 14 13  2  0  0  0  0
 15  9  2  0  0  0  0
 16 15  1  0  0  0  0
 19  1  1  0  0  0  0
 20  3  1  0  0  0  0
 25 13  1  0  0  0  0
 26 14  1  0  0  0  0
M  END
$$$$
