 xtb: 6.6.1 (8d0f1dd)
          07232612553D

 26 27  0     0  0            999 V2000
    1.0444    2.0285    0.7779 C   0  0  0  0  0  0  0  0  0  0  0  0
    1.5697    0.6945    0.3452 C   0  0  0  0  0  0  0  0  0  0  0  0
    2.9373    0.4626    0.2741 C   0  0  0  0  0  0  0  0  0  0  0  0
    3.4400   -0.7612   -0.1285 C   0  0  0  0  0  0  0  0  0  0  0  0
    2.5779   -1.7865   -0.4742 C   0  0  0  0  0  0  0  0  0  0  0  0
    1.2192   -1.5542   -0.4032 C   0  0  0  0  0  0  0  0  0  0  0  0
    0.3735   -2.5585   -0.7251 F   0  0  0  0  0  0  0  0  0  0  0  0
    0.6905   -0.3352    0.0051 C   0  0  0  0  0  0  0  0  0  0  0  0
   -0.7783   -0.1696    0.0547 C   0  0  0  0  0  0  0  0  0  0  0  0
   -1.5298   -0.2010   -1.1266 C   0  0  0  0  0  0  0  0  0  0  0  0
   -0.8575   -0.3147   -2.2982 O   0  0  0  0  0  0  0  0  0  0  0  0
   -2.9143   -0.0922   -1.0758 C   0  0  0  0  0  0  0  0  0  0  0  0
   -3.5635    0.0464    0.1374 C   0  0  0  0  0  0  0  0  0  0  0  0
   -2.8420    0.0833    1.3163 C   0  0  0  0  0  0  0  0  0  0  0  0
   -1.4655   -0.0275    1.2513 C   0  0  0  0  0  0  0  0  0  0  0  0
   -0.7631   -0.0074    2.4047 F   0  0  0  0  0  0  0  0  0  0  0  0
    0.1946    2.3267    0.1659 H   0  0  0  0  0  0  0  0  0  0  0  0
    0.7113    1.9807    1.8147 H   0  0  0  0  0  0  0  0  0  0  0  0
    1.8192    2.7877    0.7047 H   0  0  0  0  0  0  0  0  0  0  0  0
    3.6182    1.2585    0.5379 H   0  0  0  0  0  0  0  0  0  0  0  0
    4.5068   -0.9188   -0.1765 H   0  0  0  0  0  0  0  0  0  0  0  0
    2.9391   -2.7512   -0.7930 H   0  0  0  0  0  0  0  0  0  0  0  0
   -1.4815   -0.3826   -3.0308 H   0  0  0  0  0  0  0  0  0  0  0  0
   -3.4825   -0.1208   -1.9956 H   0  0  0  0  0  0  0  0  0  0  0  0
   -4.6391    0.1256    0.1631 H   0  0  0  0  0  0  0  0  0  0  0  0
   -3.3245    0.1869    2.2745 H   0  0  0  0  0  0  0  0  0  0  0  0
  1  2  1  0  0  0  0
  2  3  4  0  0  0  0
  3  4  4  0  0  0  0
  4  5  4  0  0  0  0
  5  6  4  0  0  0  0
  6  7  1  0  0  0  0
  2  8  4  0  0  0  0
  6  8  4  0  0  0  0
  8  9  1  0  0  0  0
  9 10  4  0  0  0  0
 10 11  1  0  0  0  0
 10 12  4  0  0  0  0
 12 13  4  0  0  0  0
 13 14  4  0  0  0  0
  9 15  4  0  0  0  0
 14 15  4  0  0  0  0
 15 16  1  0  0  0  0
  1 17  1  0  0  0  0
  1 18  1  0  0  0  0
  1 19  1  0  0  0  0
  3 20  1  0  0  0  0
  4 21  1  0  0  0  0
  5 22  1  0  0  0  0
 11 23  1  0  0  0  0
 12 24  1  0  0  0  0
 13 25  1  0  0  0  0
 14 26  1  0  0  0  0
M  END
