-46.46809570
 OpenBabel12022516373D

 26 27  0  0  0  0  0  0  0  0999 V2000
   -0.7368    2.1001   -1.4741 C   0  0  0  0  0  0  0  0  0  0  0  0
   -1.4663    1.0311   -0.7227 C   0  0  0  0  0  0  0  0  0  0  0  0
   -2.8543    1.0180   -0.6792 C   0  0  0  0  0  0  0  0  0  0  0  0
   -3.5462    0.0384    0.0106 C   0  0  0  0  0  0  0  0  0  0  0  0
   -2.8582   -0.9630    0.6719 C   0  0  0  0  0  0  0  0  0  0  0  0
   -1.4780   -0.9486    0.6276 C   0  0  0  0  0  0  0  0  0  0  0  0
   -0.7989   -1.9285    1.2700 F   0  0  0  0  0  0  0  0  0  0  0  0
   -0.7576    0.0295   -0.0514 C   0  0  0  0  0  0  0  0  0  0  0  0
    0.7247   -0.0012   -0.0400 C   0  0  0  0  0  0  0  0  0  0  0  0
    1.4388   -1.0062   -0.7031 C   0  0  0  0  0  0  0  0  0  0  0  0
    0.8185   -1.9785   -1.4110 O   0  0  0  0  0  0  0  0  0  0  0  0
    2.8306   -1.0076   -0.6734 C   0  0  0  0  0  0  0  0  0  0  0  0
    3.5173   -0.0304    0.0179 C   0  0  0  0  0  0  0  0  0  0  0  0
    2.8321    0.9679    0.6903 C   0  0  0  0  0  0  0  0  0  0  0  0
    1.4529    0.9626    0.6469 C   0  0  0  0  0  0  0  0  0  0  0  0
    0.7792    1.9333    1.3044 F   0  0  0  0  0  0  0  0  0  0  0  0
   -0.3705    2.8566   -0.7807 H   0  0  0  0  0  0  0  0  0  0  0  0
    0.1215    1.6893   -2.0032 H   0  0  0  0  0  0  0  0  0  0  0  0
   -1.3974    2.5855   -2.1877 H   0  0  0  0  0  0  0  0  0  0  0  0
   -3.4012    1.7926   -1.1957 H   0  0  0  0  0  0  0  0  0  0  0  0
   -4.6249    0.0514    0.0326 H   0  0  0  0  0  0  0  0  0  0  0  0
   -3.3659   -1.7410    1.2187 H   0  0  0  0  0  0  0  0  0  0  0  0
   -0.1386   -1.9220   -1.2895 H   0  0  0  0  0  0  0  0  0  0  0  0
    3.3488   -1.7927   -1.1993 H   0  0  0  0  0  0  0  0  0  0  0  0
    4.5957   -0.0458    0.0378 H   0  0  0  0  0  0  0  0  0  0  0  0
    3.3451    1.7376    1.2432 H   0  0  0  0  0  0  0  0  0  0  0  0
  1 17  1  0  0  0  0
  1  2  1  0  0  0  0
  2  3  2  0  0  0  0
  2  8  1  0  0  0  0
  3  4  1  0  0  0  0
  4 21  1  0  0  0  0
  4  5  2  0  0  0  0
  5 22  1  0  0  0  0
  6  5  1  0  0  0  0
  6  7  1  0  0  0  0
  8  9  1  0  0  0  0
  8  6  2  0  0  0  0
  9 15  1  0  0  0  0
 10 12  1  0  0  0  0
 10  9  2  0  0  0  0
 11 23  1  0  0  0  0
 11 10  1  0  0  0  0
 12 13  2  0  0  0  0
 13 25  1  0  0  0  0
 13 14  1  0  0  0  0
 14 26  1  0  0  0  0
 15 14  2  0  0  0  0
 15 16  1  0  0  0  0
 18  1  1  0  0  0  0
 19  1  1  0  0  0  0
 20  3  1  0  0  0  0
 24 12  1  0  0  0  0
M  END
$$$$
