 xtb: 6.6.1 (8d0f1dd)
          08282510023D

 26 27  0     0  0            999 V2000
   -1.3422    1.9264    0.0399 C   0  0  0  0  0  0  0  0  0  0  0  0
   -1.6201    0.4573   -0.0230 C   0  0  0  0  0  0  0  0  0  0  0  0
   -2.9230   -0.0146   -0.1144 C   0  0  0  0  0  0  0  0  0  0  0  0
   -3.1980   -1.3693   -0.1730 C   0  0  0  0  0  0  0  0  0  0  0  0
   -2.1659   -2.2897   -0.1471 C   0  0  0  0  0  0  0  0  0  0  0  0
   -0.8708   -1.8188   -0.0567 C   0  0  0  0  0  0  0  0  0  0  0  0
    0.1445   -2.7147   -0.0355 F   0  0  0  0  0  0  0  0  0  0  0  0
   -0.5670   -0.4623    0.0102 C   0  0  0  0  0  0  0  0  0  0  0  0
    0.8460   -0.0273    0.1231 C   0  0  0  0  0  0  0  0  0  0  0  0
    1.7445   -0.1913   -0.9375 C   0  0  0  0  0  0  0  0  0  0  0  0
    1.3634   -0.7181   -2.1245 O   0  0  0  0  0  0  0  0  0  0  0  0
    3.0672    0.2206   -0.8006 C   0  0  0  0  0  0  0  0  0  0  0  0
    3.5071    0.7804    0.3813 C   0  0  0  0  0  0  0  0  0  0  0  0
    2.6385    0.9449    1.4475 C   0  0  0  0  0  0  0  0  0  0  0  0
    1.3282    0.5394    1.2965 C   0  0  0  0  0  0  0  0  0  0  0  0
    0.4768    0.6945    2.3355 F   0  0  0  0  0  0  0  0  0  0  0  0
   -0.4828    2.1877   -0.5754 H   0  0  0  0  0  0  0  0  0  0  0  0
   -2.2064    2.4946   -0.2941 H   0  0  0  0  0  0  0  0  0  0  0  0
   -1.1190    2.2179    1.0656 H   0  0  0  0  0  0  0  0  0  0  0  0
   -3.7362    0.6954   -0.1380 H   0  0  0  0  0  0  0  0  0  0  0  0
   -4.2190   -1.7119   -0.2398 H   0  0  0  0  0  0  0  0  0  0  0  0
   -2.3452   -3.3518   -0.1896 H   0  0  0  0  0  0  0  0  0  0  0  0
    0.4524   -1.0366   -2.0717 H   0  0  0  0  0  0  0  0  0  0  0  0
    3.7310    0.0838   -1.6386 H   0  0  0  0  0  0  0  0  0  0  0  0
    4.5359    1.0899    0.4774 H   0  0  0  0  0  0  0  0  0  0  0  0
    2.9600    1.3736    2.3826 H   0  0  0  0  0  0  0  0  0  0  0  0
  1  2  1  0  0  0  0
  2  3  4  0  0  0  0
  3  4  4  0  0  0  0
  4  5  4  0  0  0  0
  5  6  4  0  0  0  0
  6  7  1  0  0  0  0
  2  8  4  0  0  0  0
  6  8  4  0  0  0  0
  8  9  1  0  0  0  0
  9 10  4  0  0  0  0
 10 11  1  0  0  0  0
 10 12  4  0  0  0  0
 12 13  4  0  0  0  0
 13 14  4  0  0  0  0
  9 15  4  0  0  0  0
 14 15  4  0  0  0  0
 15 16  1  0  0  0  0
  1 17  1  0  0  0  0
  1 18  1  0  0  0  0
  1 19  1  0  0  0  0
  3 20  1  0  0  0  0
  4 21  1  0  0  0  0
  5 22  1  0  0  0  0
 11 23  1  0  0  0  0
 12 24  1  0  0  0  0
 13 25  1  0  0  0  0
 14 26  1  0  0  0  0
M  END
