 xtb: 6.6.1 (8d0f1dd)
          07232612553D

 26 27  0     0  0            999 V2000
   -1.1935    1.9217    0.8009 C   0  0  0  0  0  0  0  0  0  0  0  0
   -1.6231    0.5976    0.2489 C   0  0  0  0  0  0  0  0  0  0  0  0
   -2.9676    0.3142    0.0478 C   0  0  0  0  0  0  0  0  0  0  0  0
   -3.3773   -0.9031   -0.4657 C   0  0  0  0  0  0  0  0  0  0  0  0
   -2.4430   -1.8686   -0.7945 C   0  0  0  0  0  0  0  0  0  0  0  0
   -1.1067   -1.5844   -0.5950 C   0  0  0  0  0  0  0  0  0  0  0  0
   -0.1904   -2.5293   -0.9035 F   0  0  0  0  0  0  0  0  0  0  0  0
   -0.6720   -0.3721   -0.0738 C   0  0  0  0  0  0  0  0  0  0  0  0
    0.7782   -0.1456    0.1115 C   0  0  0  0  0  0  0  0  0  0  0  0
    1.6196   -0.0250   -1.0011 C   0  0  0  0  0  0  0  0  0  0  0  0
    1.0464   -0.0550   -2.2292 O   0  0  0  0  0  0  0  0  0  0  0  0
    2.9877    0.1437   -0.8254 C   0  0  0  0  0  0  0  0  0  0  0  0
    3.5315    0.1915    0.4453 C   0  0  0  0  0  0  0  0  0  0  0  0
    2.7196    0.0768    1.5585 C   0  0  0  0  0  0  0  0  0  0  0  0
    1.3606   -0.0908    1.3689 C   0  0  0  0  0  0  0  0  0  0  0  0
    0.5684   -0.2139    2.4559 F   0  0  0  0  0  0  0  0  0  0  0  0
   -2.0040    2.6434    0.7416 H   0  0  0  0  0  0  0  0  0  0  0  0
   -0.3340    2.3066    0.2546 H   0  0  0  0  0  0  0  0  0  0  0  0
   -0.9062    1.8156    1.8466 H   0  0  0  0  0  0  0  0  0  0  0  0
   -3.7050    1.0631    0.2968 H   0  0  0  0  0  0  0  0  0  0  0  0
   -4.4280   -1.1017   -0.6128 H   0  0  0  0  0  0  0  0  0  0  0  0
   -2.7303   -2.8266   -1.1973 H   0  0  0  0  0  0  0  0  0  0  0  0
    1.7270   -0.0159   -2.9119 H   0  0  0  0  0  0  0  0  0  0  0  0
    3.6268    0.2335   -1.6932 H   0  0  0  0  0  0  0  0  0  0  0  0
    4.5958    0.3179    0.5673 H   0  0  0  0  0  0  0  0  0  0  0  0
    3.1195    0.1064    2.5587 H   0  0  0  0  0  0  0  0  0  0  0  0
  1  2  1  0  0  0  0
  2  3  4  0  0  0  0
  3  4  4  0  0  0  0
  4  5  4  0  0  0  0
  5  6  4  0  0  0  0
  6  7  1  0  0  0  0
  2  8  4  0  0  0  0
  6  8  4  0  0  0  0
  8  9  1  0  0  0  0
  9 10  4  0  0  0  0
 10 11  1  0  0  0  0
 10 12  4  0  0  0  0
 12 13  4  0  0  0  0
 13 14  4  0  0  0  0
  9 15  4  0  0  0  0
 14 15  4  0  0  0  0
 15 16  1  0  0  0  0
  1 17  1  0  0  0  0
  1 18  1  0  0  0  0
  1 19  1  0  0  0  0
  3 20  1  0  0  0  0
  4 21  1  0  0  0  0
  5 22  1  0  0  0  0
 11 23  1  0  0  0  0
 12 24  1  0  0  0  0
 13 25  1  0  0  0  0
 14 26  1  0  0  0  0
M  END
