 xtb: 6.6.1 (8d0f1dd)
          08282510023D

 26 27  0     0  0            999 V2000
    0.9411    2.0045    0.7428 C   0  0  0  0  0  0  0  0  0  0  0  0
    1.5009    0.7081    0.2472 C   0  0  0  0  0  0  0  0  0  0  0  0
    2.8720    0.5288    0.1193 C   0  0  0  0  0  0  0  0  0  0  0  0
    3.4042   -0.6640   -0.3371 C   0  0  0  0  0  0  0  0  0  0  0  0
    2.5687   -1.7099   -0.6854 C   0  0  0  0  0  0  0  0  0  0  0  0
    1.2052   -1.5297   -0.5582 C   0  0  0  0  0  0  0  0  0  0  0  0
    0.3816   -2.5478   -0.9022 F   0  0  0  0  0  0  0  0  0  0  0  0
    0.6448   -0.3437   -0.0942 C   0  0  0  0  0  0  0  0  0  0  0  0
   -0.8269   -0.2202    0.0394 C   0  0  0  0  0  0  0  0  0  0  0  0
   -1.6581   -0.1602   -1.0849 C   0  0  0  0  0  0  0  0  0  0  0  0
   -1.1620   -0.1844   -2.3439 O   0  0  0  0  0  0  0  0  0  0  0  0
   -3.0363   -0.0405   -0.9272 C   0  0  0  0  0  0  0  0  0  0  0  0
   -3.5948    0.0067    0.3338 C   0  0  0  0  0  0  0  0  0  0  0  0
   -2.7930   -0.0623    1.4611 C   0  0  0  0  0  0  0  0  0  0  0  0
   -1.4280   -0.1730    1.2912 C   0  0  0  0  0  0  0  0  0  0  0  0
   -0.6400   -0.2414    2.3878 F   0  0  0  0  0  0  0  0  0  0  0  0
    0.0658    2.2972    0.1650 H   0  0  0  0  0  0  0  0  0  0  0  0
    0.6346    1.9030    1.7834 H   0  0  0  0  0  0  0  0  0  0  0  0
    1.6875    2.7922    0.6835 H   0  0  0  0  0  0  0  0  0  0  0  0
    3.5332    1.3402    0.3847 H   0  0  0  0  0  0  0  0  0  0  0  0
    4.4733   -0.7812   -0.4239 H   0  0  0  0  0  0  0  0  0  0  0  0
    2.9508   -2.6521   -1.0437 H   0  0  0  0  0  0  0  0  0  0  0  0
   -0.2080   -0.3394   -2.3240 H   0  0  0  0  0  0  0  0  0  0  0  0
   -3.6465    0.0098   -1.8140 H   0  0  0  0  0  0  0  0  0  0  0  0
   -4.6640    0.0944    0.4432 H   0  0  0  0  0  0  0  0  0  0  0  0
   -3.2061   -0.0351    2.4560 H   0  0  0  0  0  0  0  0  0  0  0  0
  1  2  1  0  0  0  0
  2  3  4  0  0  0  0
  3  4  4  0  0  0  0
  4  5  4  0  0  0  0
  5  6  4  0  0  0  0
  6  7  1  0  0  0  0
  2  8  4  0  0  0  0
  6  8  4  0  0  0  0
  8  9  1  0  0  0  0
  9 10  4  0  0  0  0
 10 11  1  0  0  0  0
 10 12  4  0  0  0  0
 12 13  4  0  0  0  0
 13 14  4  0  0  0  0
  9 15  4  0  0  0  0
 14 15  4  0  0  0  0
 15 16  1  0  0  0  0
  1 17  1  0  0  0  0
  1 18  1  0  0  0  0
  1 19  1  0  0  0  0
  3 20  1  0  0  0  0
  4 21  1  0  0  0  0
  5 22  1  0  0  0  0
 11 23  1  0  0  0  0
 12 24  1  0  0  0  0
 13 25  1  0  0  0  0
 14 26  1  0  0  0  0
M  END
