 xtb: 6.6.1 (8d0f1dd)
          07232612553D

 26 27  0     0  0            999 V2000
   -1.0174   -1.4934    1.3980 C   0  0  0  0  0  0  0  0  0  0  0  0
   -1.5231   -0.3873    0.5242 C   0  0  0  0  0  0  0  0  0  0  0  0
   -2.8717   -0.0617    0.4789 C   0  0  0  0  0  0  0  0  0  0  0  0
   -3.3373    0.9543   -0.3379 C   0  0  0  0  0  0  0  0  0  0  0  0
   -2.4585    1.6719   -1.1287 C   0  0  0  0  0  0  0  0  0  0  0  0
   -1.1160    1.3472   -1.0819 C   0  0  0  0  0  0  0  0  0  0  0  0
   -0.2478    2.0516   -1.8390 F   0  0  0  0  0  0  0  0  0  0  0  0
   -0.6251    0.3316   -0.2706 C   0  0  0  0  0  0  0  0  0  0  0  0
    0.8254    0.0132   -0.2687 C   0  0  0  0  0  0  0  0  0  0  0  0
    1.6871    0.5830    0.6724 C   0  0  0  0  0  0  0  0  0  0  0  0
    1.2312    1.4388    1.6209 O   0  0  0  0  0  0  0  0  0  0  0  0
    3.0421    0.2689    0.6577 C   0  0  0  0  0  0  0  0  0  0  0  0
    3.5443   -0.6024   -0.2885 C   0  0  0  0  0  0  0  0  0  0  0  0
    2.7095   -1.1769   -1.2322 C   0  0  0  0  0  0  0  0  0  0  0  0
    1.3665   -0.8575   -1.2043 C   0  0  0  0  0  0  0  0  0  0  0  0
    0.5390   -1.4246   -2.1089 F   0  0  0  0  0  0  0  0  0  0  0  0
   -0.3064   -1.1140    2.1321 H   0  0  0  0  0  0  0  0  0  0  0  0
   -0.5002   -2.2408    0.7970 H   0  0  0  0  0  0  0  0  0  0  0  0
   -1.8379   -1.9746    1.9237 H   0  0  0  0  0  0  0  0  0  0  0  0
   -3.5679   -0.6178    1.0888 H   0  0  0  0  0  0  0  0  0  0  0  0
   -4.3907    1.1871   -0.3620 H   0  0  0  0  0  0  0  0  0  0  0  0
   -2.7924    2.4662   -1.7765 H   0  0  0  0  0  0  0  0  0  0  0  0
    0.2893    1.6083    1.4822 H   0  0  0  0  0  0  0  0  0  0  0  0
    3.6808    0.7244    1.3968 H   0  0  0  0  0  0  0  0  0  0  0  0
    4.5970   -0.8374   -0.2934 H   0  0  0  0  0  0  0  0  0  0  0  0
    3.0801   -1.8585   -1.9801 H   0  0  0  0  0  0  0  0  0  0  0  0
  1  2  1  0  0  0  0
  2  3  4  0  0  0  0
  3  4  4  0  0  0  0
  4  5  4  0  0  0  0
  5  6  4  0  0  0  0
  6  7  1  0  0  0  0
  2  8  4  0  0  0  0
  6  8  4  0  0  0  0
  8  9  1  0  0  0  0
  9 10  4  0  0  0  0
 10 11  1  0  0  0  0
 10 12  4  0  0  0  0
 12 13  4  0  0  0  0
 13 14  4  0  0  0  0
  9 15  4  0  0  0  0
 14 15  4  0  0  0  0
 15 16  1  0  0  0  0
  1 17  1  0  0  0  0
  1 18  1  0  0  0  0
  1 19  1  0  0  0  0
  3 20  1  0  0  0  0
  4 21  1  0  0  0  0
  5 22  1  0  0  0  0
 11 23  1  0  0  0  0
 12 24  1  0  0  0  0
 13 25  1  0  0  0  0
 14 26  1  0  0  0  0
M  END
